MODEL 1
REMARK VINA RESULT:     -11.5      0.000      0.000
REMARK  14 active torsions:
REMARK  status: ('A' for Active; 'I' for Inactive)
REMARK    1  A    between atoms: N1_1  and  C31_43 
REMARK    2  A    between atoms: C2_3  and  C3_4 
REMARK       I    between atoms: C3_4  and  N2_6 
REMARK    3  A    between atoms: N2_6  and  C4_8 
REMARK    4  A    between atoms: N3_12  and  C10_15 
REMARK    5  A    between atoms: C10_15  and  C11_16 
REMARK    6  A    between atoms: C11_16  and  O2_17 
REMARK    7  A    between atoms: C11_16  and  C12_19 
REMARK    8  A    between atoms: C12_19  and  C13_20 
REMARK    9  A    between atoms: C13_20  and  C21_28 
REMARK   10  A    between atoms: C13_20  and  C14_21 
REMARK   11  A    between atoms: C14_21  and  C15_22 
REMARK       I    between atoms: C21_28  and  N4_30 
REMARK   12  A    between atoms: N4_30  and  C22_32 
REMARK   13  A    between atoms: C23_33  and  O4_34 
REMARK   14  A    between atoms: C31_43  and  C32_44 
ROOT
HETATM    1  N1  MK1 B 902       9.191  24.286   2.958  1.00 28.25     0.096 N 
HETATM    2  C1  MK1 B 902       9.411  24.408   4.424  1.00 30.30     0.307 C 
HETATM    3  C2  MK1 B 902      10.591  25.179   4.983  1.00 27.27     0.200 C 
HETATM    4  N3  MK1 B 902      11.752  24.457   4.355  1.00 28.91    -0.395 N 
HETATM    5  C8  MK1 B 902      11.651  24.031   2.937  1.00 26.24     0.148 C 
HETATM    6  C9  MK1 B 902      10.288  23.608   2.428  1.00 27.47     0.292 C 
ENDROOT
BRANCH   1   7
HETATM    7  C31 MK1 B 902       7.885  23.783   2.515  1.00 36.25     0.312 C 
BRANCH   7   8
HETATM    8  C32 MK1 B 902       6.595  24.149   3.257  1.00 42.75    -0.015 A 
HETATM    9  C36 MK1 B 902       5.762  23.118   3.639  1.00 44.71     0.011 A 
HETATM   10  C35 MK1 B 902       4.579  23.445   4.296  1.00 49.34     0.018 A 
HETATM   11  C34 MK1 B 902       4.268  24.785   4.546  1.00 50.60     0.087 A 
HETATM   12  N5  MK1 B 902       5.051  25.884   4.195  1.00 51.38    -0.375 N 
HETATM   13  C33 MK1 B 902       6.223  25.471   3.539  1.00 47.41     0.096 A 
HETATM   14  H5  MK1 B 902       4.806  26.855   4.388  1.00  0.00     0.164 HD
ENDBRANCH   7   8
ENDBRANCH   1   7
BRANCH   3  15
HETATM   15  C3  MK1 B 902      10.566  25.064   6.483  1.00 28.85     0.242 C 
HETATM   16  O1  MK1 B 902      10.675  23.970   7.021  1.00 29.59    -0.271 OA
HETATM   17  N2  MK1 B 902      10.408  26.181   7.166  1.00 22.29    -0.351 N 
HETATM   18  H2  MK1 B 902      10.260  27.015   6.596  1.00  0.00     0.163 HD
BRANCH  17  19
HETATM   19  C4  MK1 B 902      10.410  26.411   8.575  1.00 23.47     0.022 C 
HETATM   20  C7  MK1 B 902      10.143  27.805   8.942  1.00 22.75     0.037 C 
HETATM   21  C5  MK1 B 902      11.844  26.148   9.071  1.00 27.66     0.037 C 
HETATM   22  C6  MK1 B 902       9.509  25.614   9.263  1.00 21.71     0.037 C 
ENDBRANCH  17  19
ENDBRANCH   3  15
BRANCH   4  23
HETATM   23  C10 MK1 B 902      13.080  24.986   4.597  1.00 20.86     0.149 C 
BRANCH  23  24
HETATM   24  C11 MK1 B 902      14.076  23.955   5.133  1.00 21.68     0.136 C 
BRANCH  24  25
HETATM   25  O2  MK1 B 902      15.212  24.639   4.696  1.00 15.87    -0.394 OA
HETATM   26  H2  MK1 B 902      15.175  24.694   3.748  1.00  0.00     0.210 HD
ENDBRANCH  24  25
BRANCH  24  27
HETATM   27  C12 MK1 B 902      14.262  23.628   6.626  1.00 21.49     0.047 C 
BRANCH  27  28
HETATM   28  C13 MK1 B 902      15.445  22.770   7.096  1.00 26.89     0.084 C 
BRANCH  28  29
HETATM   29  C21 MK1 B 902      15.443  21.389   6.453  1.00 29.35     0.222 C 
HETATM   30  N4  MK1 B 902      16.626  20.957   6.024  1.00 31.19    -0.350 N 
HETATM   31  H4  MK1 B 902      17.391  21.623   5.921  1.00  0.00     0.163 HD
HETATM   32  O3  MK1 B 902      14.414  20.695   6.451  1.00 32.66    -0.273 OA
BRANCH  30  33
HETATM   33  C22 MK1 B 902      16.853  19.560   5.697  1.00 29.22     0.147 C 
HETATM   34  C30 MK1 B 902      16.619  19.096   4.236  1.00 31.86    -0.027 A 
HETATM   35  C29 MK1 B 902      15.700  19.425   3.290  1.00 27.70     0.010 A 
HETATM   36  C25 MK1 B 902      17.675  18.038   3.807  1.00 31.29    -0.047 A 
HETATM   37  C28 MK1 B 902      15.717  18.852   2.025  1.00 29.01     0.001 A 
HETATM   38  C27 MK1 B 902      16.684  17.908   1.646  1.00 28.00     0.001 A 
HETATM   39  C26 MK1 B 902      17.674  17.495   2.544  1.00 32.00     0.008 A 
HETATM   40  C24 MK1 B 902      18.518  17.942   5.055  1.00 32.05     0.073 C 
HETATM   41  C23 MK1 B 902      18.294  19.145   5.943  1.00 28.82     0.149 C 
BRANCH  41  42
HETATM   42  O4  MK1 B 902      19.171  20.230   5.675  1.00 28.32    -0.393 OA
HETATM   43  H4  MK1 B 902      18.704  20.928   5.231  1.00  0.00     0.210 HD
ENDBRANCH  41  42
ENDBRANCH  30  33
ENDBRANCH  28  29
BRANCH  28  44
HETATM   44  C14 MK1 B 902      15.476  22.607   8.626  1.00 28.67     0.052 C 
BRANCH  44  45
HETATM   45  C15 MK1 B 902      16.569  21.712   9.080  1.00 26.89    -0.057 A 
HETATM   46  C16 MK1 B 902      17.913  21.963   8.796  1.00 29.22     0.007 A 
HETATM   47  C17 MK1 B 902      18.900  21.079   9.209  1.00 29.22     0.001 A 
HETATM   48  C18 MK1 B 902      18.524  19.933   9.913  1.00 30.97     0.000 A 
HETATM   49  C19 MK1 B 902      17.178  19.682  10.206  1.00 29.25     0.001 A 
HETATM   50  C20 MK1 B 902      16.198  20.580   9.785  1.00 29.96     0.007 A 
ENDBRANCH  44  45
ENDBRANCH  28  44
ENDBRANCH  27  28
ENDBRANCH  24  27
ENDBRANCH  23  24
ENDBRANCH   4  23
TORSDOF 14
ENDMDL
MODEL 2
REMARK VINA RESULT:     -10.5      2.043     11.009
REMARK  14 active torsions:
REMARK  status: ('A' for Active; 'I' for Inactive)
REMARK    1  A    between atoms: N1_1  and  C31_43 
REMARK    2  A    between atoms: C2_3  and  C3_4 
REMARK       I    between atoms: C3_4  and  N2_6 
REMARK    3  A    between atoms: N2_6  and  C4_8 
REMARK    4  A    between atoms: N3_12  and  C10_15 
REMARK    5  A    between atoms: C10_15  and  C11_16 
REMARK    6  A    between atoms: C11_16  and  O2_17 
REMARK    7  A    between atoms: C11_16  and  C12_19 
REMARK    8  A    between atoms: C12_19  and  C13_20 
REMARK    9  A    between atoms: C13_20  and  C21_28 
REMARK   10  A    between atoms: C13_20  and  C14_21 
REMARK   11  A    between atoms: C14_21  and  C15_22 
REMARK       I    between atoms: C21_28  and  N4_30 
REMARK   12  A    between atoms: N4_30  and  C22_32 
REMARK   13  A    between atoms: C23_33  and  O4_34 
REMARK   14  A    between atoms: C31_43  and  C32_44 
ROOT
HETATM    1  N1  MK1 B 902      16.327  21.246   9.017  1.00 28.25     0.096 N 
HETATM    2  C1  MK1 B 902      15.840  20.563   7.789  1.00 30.30     0.307 C 
HETATM    3  C2  MK1 B 902      16.009  21.189   6.419  1.00 27.27     0.200 C 
HETATM    4  N3  MK1 B 902      15.287  22.498   6.590  1.00 28.91    -0.395 N 
HETATM    5  C8  MK1 B 902      15.454  23.250   7.860  1.00 26.24     0.148 C 
HETATM    6  C9  MK1 B 902      15.625  22.445   9.132  1.00 27.47     0.292 C 
ENDROOT
BRANCH   1   7
HETATM    7  C31 MK1 B 902      16.389  20.450  10.249  1.00 36.25     0.312 C 
BRANCH   7   8
HETATM    8  C32 MK1 B 902      17.084  19.083  10.283  1.00 42.75    -0.015 A 
HETATM    9  C36 MK1 B 902      18.343  18.992   9.728  1.00 44.71     0.011 A 
HETATM   10  C35 MK1 B 902      18.971  17.750   9.738  1.00 49.34     0.018 A 
HETATM   11  C34 MK1 B 902      18.321  16.645  10.296  1.00 50.60     0.087 A 
HETATM   12  N5  MK1 B 902      17.053  16.650  10.875  1.00 51.38    -0.375 N 
HETATM   13  C33 MK1 B 902      16.489  17.936  10.826  1.00 47.41     0.096 A 
HETATM   14  H5  MK1 B 902      16.597  15.832  11.278  1.00  0.00     0.164 HD
ENDBRANCH   7   8
ENDBRANCH   1   7
BRANCH   3  15
HETATM   15  C3  MK1 B 902      15.363  20.288   5.402  1.00 28.85     0.242 C 
HETATM   16  O1  MK1 B 902      14.162  20.057   5.455  1.00 29.59    -0.271 OA
HETATM   17  N2  MK1 B 902      16.149  19.764   4.482  1.00 22.29    -0.351 N 
HETATM   18  H2  MK1 B 902      17.140  19.982   4.590  1.00  0.00     0.163 HD
BRANCH  17  19
HETATM   19  C4  MK1 B 902      15.836  18.940   3.359  1.00 23.47     0.022 C 
HETATM   20  C7  MK1 B 902      15.213  17.664   3.724  1.00 22.75     0.037 C 
HETATM   21  C5  MK1 B 902      17.172  18.544   2.705  1.00 27.66     0.037 C 
HETATM   22  C6  MK1 B 902      15.012  19.562   2.434  1.00 21.71     0.037 C 
ENDBRANCH  17  19
ENDBRANCH   3  15
BRANCH   4  23
HETATM   23  C10 MK1 B 902      15.316  23.430   5.481  1.00 20.86     0.149 C 
BRANCH  23  24
HETATM   24  C11 MK1 B 902      13.947  23.998   5.104  1.00 21.68     0.136 C 
BRANCH  24  25
HETATM   25  O2  MK1 B 902      14.443  25.206   4.610  1.00 15.87    -0.394 OA
HETATM   26  H2  MK1 B 902      15.355  25.277   4.867  1.00  0.00     0.210 HD
ENDBRANCH  24  25
BRANCH  24  27
HETATM   27  C12 MK1 B 902      13.024  23.389   4.032  1.00 21.49     0.047 C 
BRANCH  27  28
HETATM   28  C13 MK1 B 902      11.762  24.132   3.574  1.00 26.89     0.084 C 
BRANCH  28  29
HETATM   29  C21 MK1 B 902      10.840  24.470   4.740  1.00 29.35     0.222 C 
HETATM   30  N4  MK1 B 902      10.385  25.720   4.763  1.00 31.19    -0.350 N 
HETATM   31  H4  MK1 B 902      10.836  26.425   4.181  1.00  0.00     0.163 HD
HETATM   32  O3  MK1 B 902      10.470  23.587   5.528  1.00 32.66    -0.273 OA
BRANCH  30  33
HETATM   33  C22 MK1 B 902       9.259  26.104   5.598  1.00 29.22     0.147 C 
HETATM   34  C30 MK1 B 902       9.551  26.709   6.996  1.00 31.86    -0.027 A 
HETATM   35  C29 MK1 B 902      10.487  26.451   7.946  1.00 27.70     0.010 A 
HETATM   36  C25 MK1 B 902       8.539  27.840   7.338  1.00 31.29    -0.047 A 
HETATM   37  C28 MK1 B 902      10.532  27.161   9.139  1.00 29.01     0.001 A 
HETATM   38  C27 MK1 B 902       9.622  28.188   9.430  1.00 28.00     0.001 A 
HETATM   39  C26 MK1 B 902       8.614  28.534   8.523  1.00 32.00     0.008 A 
HETATM   40  C24 MK1 B 902       7.694  27.867   6.089  1.00 32.05     0.073 C 
HETATM   41  C23 MK1 B 902       8.410  27.183   4.947  1.00 28.82     0.149 C 
BRANCH  41  42
HETATM   42  O4  MK1 B 902       9.225  28.052   4.174  1.00 28.32    -0.393 OA
HETATM   43  H4  MK1 B 902       8.712  28.783   3.851  1.00  0.00     0.210 HD
ENDBRANCH  41  42
ENDBRANCH  30  33
ENDBRANCH  28  29
BRANCH  28  44
HETATM   44  C14 MK1 B 902      10.965  23.337   2.524  1.00 28.67     0.052 C 
BRANCH  44  45
HETATM   45  C15 MK1 B 902       9.626  23.922   2.264  1.00 26.89    -0.057 A 
HETATM   46  C16 MK1 B 902       8.441  23.217   2.485  1.00 29.22     0.007 A 
HETATM   47  C17 MK1 B 902       7.213  23.790   2.193  1.00 29.22     0.001 A 
HETATM   48  C18 MK1 B 902       7.182  25.086   1.672  1.00 30.97     0.000 A 
HETATM   49  C19 MK1 B 902       8.367  25.799   1.457  1.00 29.25     0.001 A 
HETATM   50  C20 MK1 B 902       9.595  25.209   1.757  1.00 29.96     0.007 A 
ENDBRANCH  44  45
ENDBRANCH  28  44
ENDBRANCH  27  28
ENDBRANCH  24  27
ENDBRANCH  23  24
ENDBRANCH   4  23
TORSDOF 14
ENDMDL
MODEL 3
REMARK VINA RESULT:     -10.3      2.087     10.737
REMARK  14 active torsions:
REMARK  status: ('A' for Active; 'I' for Inactive)
REMARK    1  A    between atoms: N1_1  and  C31_43 
REMARK    2  A    between atoms: C2_3  and  C3_4 
REMARK       I    between atoms: C3_4  and  N2_6 
REMARK    3  A    between atoms: N2_6  and  C4_8 
REMARK    4  A    between atoms: N3_12  and  C10_15 
REMARK    5  A    between atoms: C10_15  and  C11_16 
REMARK    6  A    between atoms: C11_16  and  O2_17 
REMARK    7  A    between atoms: C11_16  and  C12_19 
REMARK    8  A    between atoms: C12_19  and  C13_20 
REMARK    9  A    between atoms: C13_20  and  C21_28 
REMARK   10  A    between atoms: C13_20  and  C14_21 
REMARK   11  A    between atoms: C14_21  and  C15_22 
REMARK       I    between atoms: C21_28  and  N4_30 
REMARK   12  A    between atoms: N4_30  and  C22_32 
REMARK   13  A    between atoms: C23_33  and  O4_34 
REMARK   14  A    between atoms: C31_43  and  C32_44 
ROOT
HETATM    1  N1  MK1 B 902      17.329  21.344   8.806  1.00 28.25     0.096 N 
HETATM    2  C1  MK1 B 902      16.998  21.043   7.387  1.00 30.30     0.307 C 
HETATM    3  C2  MK1 B 902      15.933  21.825   6.643  1.00 27.27     0.200 C 
HETATM    4  N3  MK1 B 902      14.723  21.590   7.506  1.00 28.91    -0.395 N 
HETATM    5  C8  MK1 B 902      14.878  21.620   8.982  1.00 26.24     0.148 C 
HETATM    6  C9  MK1 B 902      16.181  21.107   9.561  1.00 27.47     0.292 C 
ENDROOT
BRANCH   1   7
HETATM    7  C31 MK1 B 902      18.556  20.750   9.350  1.00 36.25     0.312 C 
BRANCH   7   8
HETATM    8  C32 MK1 B 902      18.542  19.380  10.039  1.00 42.75    -0.015 A 
HETATM    9  C36 MK1 B 902      18.853  19.336  11.381  1.00 44.71     0.011 A 
HETATM   10  C35 MK1 B 902      18.861  18.092  12.008  1.00 49.34     0.018 A 
HETATM   11  C34 MK1 B 902      18.564  16.940  11.274  1.00 50.60     0.087 A 
HETATM   12  N5  MK1 B 902      18.241  16.897   9.918  1.00 51.38    -0.375 N 
HETATM   13  C33 MK1 B 902      18.253  18.186   9.362  1.00 47.41     0.096 A 
HETATM   14  H5  MK1 B 902      18.026  16.045   9.401  1.00  0.00     0.164 HD
ENDBRANCH   7   8
ENDBRANCH   1   7
BRANCH   3  15
HETATM   15  C3  MK1 B 902      15.795  21.242   5.263  1.00 28.85     0.242 C 
HETATM   16  O1  MK1 B 902      15.657  21.976   4.293  1.00 29.59    -0.271 OA
HETATM   17  N2  MK1 B 902      15.817  19.927   5.164  1.00 22.29    -0.351 N 
HETATM   18  H2  MK1 B 902      15.869  19.431   6.054  1.00  0.00     0.163 HD
BRANCH  17  19
HETATM   19  C4  MK1 B 902      15.779  19.086   4.011  1.00 23.47     0.022 C 
HETATM   20  C7  MK1 B 902      14.898  19.585   2.950  1.00 22.75     0.037 C 
HETATM   21  C5  MK1 B 902      15.143  17.753   4.447  1.00 27.66     0.037 C 
HETATM   22  C6  MK1 B 902      17.027  18.864   3.452  1.00 21.71     0.037 C 
ENDBRANCH  17  19
ENDBRANCH   3  15
BRANCH   4  23
HETATM   23  C10 MK1 B 902      13.499  22.276   7.145  1.00 20.86     0.149 C 
BRANCH  23  24
HETATM   24  C11 MK1 B 902      12.574  21.468   6.234  1.00 21.68     0.136 C 
BRANCH  24  25
HETATM   25  O2  MK1 B 902      11.633  21.188   7.226  1.00 15.87    -0.394 OA
HETATM   26  H2  MK1 B 902      11.873  20.366   7.636  1.00  0.00     0.210 HD
ENDBRANCH  24  25
BRANCH  24  27
HETATM   27  C12 MK1 B 902      11.827  22.054   5.021  1.00 21.49     0.047 C 
BRANCH  27  28
HETATM   28  C13 MK1 B 902      12.481  23.134   4.147  1.00 26.89     0.084 C 
BRANCH  28  29
HETATM   29  C21 MK1 B 902      12.360  24.522   4.766  1.00 29.35     0.222 C 
HETATM   30  N4  MK1 B 902      11.259  24.733   5.481  1.00 31.19    -0.350 N 
HETATM   31  H4  MK1 B 902      10.474  24.088   5.388  1.00  0.00     0.163 HD
HETATM   32  O3  MK1 B 902      13.295  25.333   4.684  1.00 32.66    -0.273 OA
BRANCH  30  33
HETATM   33  C22 MK1 B 902      11.147  25.859   6.392  1.00 29.22     0.147 C 
HETATM   34  C30 MK1 B 902       9.827  26.674   6.398  1.00 31.86    -0.027 A 
HETATM   35  C29 MK1 B 902       8.964  27.058   5.421  1.00 27.70     0.010 A 
HETATM   36  C25 MK1 B 902       9.453  27.122   7.840  1.00 31.29    -0.047 A 
HETATM   37  C28 MK1 B 902       7.824  27.798   5.705  1.00 29.01     0.001 A 
HETATM   38  C27 MK1 B 902       7.489  28.184   7.011  1.00 28.00     0.001 A 
HETATM   39  C26 MK1 B 902       8.311  27.845   8.092  1.00 32.00     0.008 A 
HETATM   40  C24 MK1 B 902      10.581  26.516   8.638  1.00 32.05     0.073 C 
HETATM   41  C23 MK1 B 902      11.273  25.433   7.844  1.00 28.82     0.149 C 
BRANCH  41  42
HETATM   42  O4  MK1 B 902      10.716  24.139   8.027  1.00 28.32    -0.393 OA
HETATM   43  H4  MK1 B 902      10.552  23.979   8.950  1.00  0.00     0.210 HD
ENDBRANCH  41  42
ENDBRANCH  30  33
ENDBRANCH  28  29
BRANCH  28  44
HETATM   44  C14 MK1 B 902      11.893  23.169   2.726  1.00 28.67     0.052 C 
BRANCH  44  45
HETATM   45  C15 MK1 B 902      10.440  23.471   2.721  1.00 26.89    -0.057 A 
HETATM   46  C16 MK1 B 902       9.477  22.541   3.118  1.00 29.22     0.007 A 
HETATM   47  C17 MK1 B 902       8.127  22.853   3.062  1.00 29.22     0.001 A 
HETATM   48  C18 MK1 B 902       7.747  24.115   2.598  1.00 30.97     0.000 A 
HETATM   49  C19 MK1 B 902       8.709  25.053   2.206  1.00 29.25     0.001 A 
HETATM   50  C20 MK1 B 902      10.063  24.724   2.269  1.00 29.96     0.007 A 
ENDBRANCH  44  45
ENDBRANCH  28  44
ENDBRANCH  27  28
ENDBRANCH  24  27
ENDBRANCH  23  24
ENDBRANCH   4  23
TORSDOF 14
ENDMDL
MODEL 4
REMARK VINA RESULT:     -10.3      2.007     10.328
REMARK  14 active torsions:
REMARK  status: ('A' for Active; 'I' for Inactive)
REMARK    1  A    between atoms: N1_1  and  C31_43 
REMARK    2  A    between atoms: C2_3  and  C3_4 
REMARK       I    between atoms: C3_4  and  N2_6 
REMARK    3  A    between atoms: N2_6  and  C4_8 
REMARK    4  A    between atoms: N3_12  and  C10_15 
REMARK    5  A    between atoms: C10_15  and  C11_16 
REMARK    6  A    between atoms: C11_16  and  O2_17 
REMARK    7  A    between atoms: C11_16  and  C12_19 
REMARK    8  A    between atoms: C12_19  and  C13_20 
REMARK    9  A    between atoms: C13_20  and  C21_28 
REMARK   10  A    between atoms: C13_20  and  C14_21 
REMARK   11  A    between atoms: C14_21  and  C15_22 
REMARK       I    between atoms: C21_28  and  N4_30 
REMARK   12  A    between atoms: N4_30  and  C22_32 
REMARK   13  A    between atoms: C23_33  and  O4_34 
REMARK   14  A    between atoms: C31_43  and  C32_44 
ROOT
HETATM    1  N1  MK1 B 902      17.319  21.243   8.374  1.00 28.25     0.096 N 
HETATM    2  C1  MK1 B 902      16.637  20.420   7.340  1.00 30.30     0.307 C 
HETATM    3  C2  MK1 B 902      16.398  20.951   5.940  1.00 27.27     0.200 C 
HETATM    4  N3  MK1 B 902      15.586  22.187   6.218  1.00 28.91    -0.395 N 
HETATM    5  C8  MK1 B 902      15.960  23.049   7.368  1.00 26.24     0.148 C 
HETATM    6  C9  MK1 B 902      16.526  22.368   8.598  1.00 27.47     0.292 C 
ENDROOT
BRANCH   1   7
HETATM    7  C31 MK1 B 902      17.768  20.557   9.591  1.00 36.25     0.312 C 
BRANCH   7   8
HETATM    8  C32 MK1 B 902      17.964  19.036   9.624  1.00 42.75    -0.015 A 
HETATM    9  C36 MK1 B 902      17.511  18.357  10.735  1.00 44.71     0.011 A 
HETATM   10  C35 MK1 B 902      17.704  16.979  10.780  1.00 49.34     0.018 A 
HETATM   11  C34 MK1 B 902      18.342  16.329   9.719  1.00 50.60     0.087 A 
HETATM   12  N5  MK1 B 902      18.829  16.939   8.564  1.00 51.38    -0.375 N 
HETATM   13  C33 MK1 B 902      18.596  18.324   8.595  1.00 47.41     0.096 A 
HETATM   14  H5  MK1 B 902      19.291  16.446   7.800  1.00  0.00     0.164 HD
ENDBRANCH   7   8
ENDBRANCH   1   7
BRANCH   3  15
HETATM   15  C3  MK1 B 902      15.640  19.911   5.161  1.00 28.85     0.242 C 
HETATM   16  O1  MK1 B 902      14.527  19.554   5.525  1.00 29.59    -0.271 OA
HETATM   17  N2  MK1 B 902      16.237  19.408   4.098  1.00 22.29    -0.351 N 
HETATM   18  H2  MK1 B 902      17.189  19.740   3.943  1.00  0.00     0.163 HD
BRANCH  17  19
HETATM   19  C4  MK1 B 902      15.764  18.472   3.128  1.00 23.47     0.022 C 
HETATM   20  C7  MK1 B 902      16.837  17.823   2.368  1.00 22.75     0.037 C 
HETATM   21  C5  MK1 B 902      14.975  19.274   2.077  1.00 27.66     0.037 C 
HETATM   22  C6  MK1 B 902      14.969  17.474   3.670  1.00 21.71     0.037 C 
ENDBRANCH  17  19
ENDBRANCH   3  15
BRANCH   4  23
HETATM   23  C10 MK1 B 902      15.237  23.028   5.091  1.00 20.86     0.149 C 
BRANCH  23  24
HETATM   24  C11 MK1 B 902      13.739  23.073   4.783  1.00 21.68     0.136 C 
BRANCH  24  25
HETATM   25  O2  MK1 B 902      13.812  22.224   3.677  1.00 15.87    -0.394 OA
HETATM   26  H2  MK1 B 902      13.010  22.325   3.177  1.00  0.00     0.210 HD
ENDBRANCH  24  25
BRANCH  24  27
HETATM   27  C12 MK1 B 902      12.647  22.534   5.725  1.00 21.49     0.047 C 
BRANCH  27  28
HETATM   28  C13 MK1 B 902      11.282  23.232   5.819  1.00 26.89     0.084 C 
BRANCH  28  29
HETATM   29  C21 MK1 B 902      10.434  23.003   4.574  1.00 29.35     0.222 C 
HETATM   30  N4  MK1 B 902       9.580  23.978   4.279  1.00 31.19    -0.350 N 
HETATM   31  H4  MK1 B 902       9.361  24.680   4.986  1.00  0.00     0.163 HD
HETATM   32  O3  MK1 B 902      10.634  22.018   3.846  1.00 32.66    -0.273 OA
BRANCH  30  33
HETATM   33  C22 MK1 B 902       8.949  24.069   2.973  1.00 29.22     0.147 C 
HETATM   34  C30 MK1 B 902       7.402  23.990   2.893  1.00 31.86    -0.027 A 
HETATM   35  C29 MK1 B 902       6.470  23.269   3.569  1.00 27.70     0.010 A 
HETATM   36  C25 MK1 B 902       6.848  24.952   1.804  1.00 31.29    -0.047 A 
HETATM   37  C28 MK1 B 902       5.114  23.394   3.299  1.00 29.01     0.001 A 
HETATM   38  C27 MK1 B 902       4.625  24.276   2.323  1.00 28.00     0.001 A 
HETATM   39  C26 MK1 B 902       5.499  25.064   1.566  1.00 32.00     0.008 A 
HETATM   40  C24 MK1 B 902       8.120  25.586   1.297  1.00 32.05     0.073 C 
HETATM   41  C23 MK1 B 902       9.244  25.393   2.289  1.00 28.82     0.149 C 
BRANCH  41  42
HETATM   42  O4  MK1 B 902       9.346  26.432   3.252  1.00 28.32    -0.393 OA
HETATM   43  H4  MK1 B 902       8.593  27.008   3.195  1.00  0.00     0.210 HD
ENDBRANCH  41  42
ENDBRANCH  30  33
ENDBRANCH  28  29
BRANCH  28  44
HETATM   44  C14 MK1 B 902      11.418  24.746   6.057  1.00 28.67     0.052 C 
BRANCH  44  45
HETATM   45  C15 MK1 B 902      11.069  25.136   7.446  1.00 26.89    -0.057 A 
HETATM   46  C16 MK1 B 902      11.999  25.694   8.327  1.00 29.22     0.007 A 
HETATM   47  C17 MK1 B 902      11.638  26.009   9.629  1.00 29.22     0.001 A 
HETATM   48  C18 MK1 B 902      10.329  25.756  10.044  1.00 30.97     0.000 A 
HETATM   49  C19 MK1 B 902       9.392  25.204   9.162  1.00 29.25     0.001 A 
HETATM   50  C20 MK1 B 902       9.769  24.894   7.856  1.00 29.96     0.007 A 
ENDBRANCH  44  45
ENDBRANCH  28  44
ENDBRANCH  27  28
ENDBRANCH  24  27
ENDBRANCH  23  24
ENDBRANCH   4  23
TORSDOF 14
ENDMDL
MODEL 5
REMARK VINA RESULT:     -10.2      1.923     10.879
REMARK  14 active torsions:
REMARK  status: ('A' for Active; 'I' for Inactive)
REMARK    1  A    between atoms: N1_1  and  C31_43 
REMARK    2  A    between atoms: C2_3  and  C3_4 
REMARK       I    between atoms: C3_4  and  N2_6 
REMARK    3  A    between atoms: N2_6  and  C4_8 
REMARK    4  A    between atoms: N3_12  and  C10_15 
REMARK    5  A    between atoms: C10_15  and  C11_16 
REMARK    6  A    between atoms: C11_16  and  O2_17 
REMARK    7  A    between atoms: C11_16  and  C12_19 
REMARK    8  A    between atoms: C12_19  and  C13_20 
REMARK    9  A    between atoms: C13_20  and  C21_28 
REMARK   10  A    between atoms: C13_20  and  C14_21 
REMARK   11  A    between atoms: C14_21  and  C15_22 
REMARK       I    between atoms: C21_28  and  N4_30 
REMARK   12  A    between atoms: N4_30  and  C22_32 
REMARK   13  A    between atoms: C23_33  and  O4_34 
REMARK   14  A    between atoms: C31_43  and  C32_44 
ROOT
HETATM    1  N1  MK1 B 902      15.627  23.004   6.881  1.00 28.25     0.096 N 
HETATM    2  C1  MK1 B 902      15.592  21.653   6.260  1.00 30.30     0.307 C 
HETATM    3  C2  MK1 B 902      15.181  21.461   4.813  1.00 27.27     0.200 C 
HETATM    4  N3  MK1 B 902      13.800  22.057   4.807  1.00 28.91    -0.395 N 
HETATM    5  C8  MK1 B 902      13.553  23.307   5.568  1.00 26.24     0.148 C 
HETATM    6  C9  MK1 B 902      14.327  23.507   6.855  1.00 27.47     0.292 C 
ENDROOT
BRANCH   1   7
HETATM    7  C31 MK1 B 902      16.309  23.131   8.175  1.00 36.25     0.312 C 
BRANCH   7   8
HETATM    8  C32 MK1 B 902      16.902  21.910   8.888  1.00 42.75    -0.015 A 
HETATM    9  C36 MK1 B 902      16.040  21.106   9.603  1.00 44.71     0.011 A 
HETATM   10  C35 MK1 B 902      16.575  20.007  10.270  1.00 49.34     0.018 A 
HETATM   11  C34 MK1 B 902      17.948  19.752  10.202  1.00 50.60     0.087 A 
HETATM   12  N5  MK1 B 902      18.886  20.512   9.504  1.00 51.38    -0.375 N 
HETATM   13  C33 MK1 B 902      18.269  21.597   8.861  1.00 47.41     0.096 A 
HETATM   14  H5  MK1 B 902      19.885  20.308   9.467  1.00  0.00     0.164 HD
ENDBRANCH   7   8
ENDBRANCH   1   7
BRANCH   3  15
HETATM   15  C3  MK1 B 902      15.190  19.987   4.509  1.00 28.85     0.242 C 
HETATM   16  O1  MK1 B 902      14.493  19.218   5.159  1.00 29.59    -0.271 OA
HETATM   17  N2  MK1 B 902      15.982  19.582   3.537  1.00 22.29    -0.351 N 
HETATM   18  H2  MK1 B 902      16.560  20.313   3.122  1.00  0.00     0.163 HD
BRANCH  17  19
HETATM   19  C4  MK1 B 902      16.162  18.282   2.972  1.00 23.47     0.022 C 
HETATM   20  C7  MK1 B 902      16.984  18.281   1.757  1.00 22.75     0.037 C 
HETATM   21  C5  MK1 B 902      14.777  17.801   2.503  1.00 27.66     0.037 C 
HETATM   22  C6  MK1 B 902      16.716  17.371   3.856  1.00 21.71     0.037 C 
ENDBRANCH  17  19
ENDBRANCH   3  15
BRANCH   4  23
HETATM   23  C10 MK1 B 902      13.109  22.133   3.535  1.00 20.86     0.149 C 
BRANCH  23  24
HETATM   24  C11 MK1 B 902      11.867  23.026   3.549  1.00 21.68     0.136 C 
BRANCH  24  25
HETATM   25  O2  MK1 B 902      12.236  23.772   2.428  1.00 15.87    -0.394 OA
HETATM   26  H2  MK1 B 902      12.062  24.687   2.614  1.00  0.00     0.210 HD
ENDBRANCH  24  25
BRANCH  24  27
HETATM   27  C12 MK1 B 902      10.432  22.515   3.331  1.00 21.49     0.047 C 
BRANCH  27  28
HETATM   28  C13 MK1 B 902       9.268  23.502   3.159  1.00 26.89     0.084 C 
BRANCH  28  29
HETATM   29  C21 MK1 B 902       9.523  24.820   3.880  1.00 29.35     0.222 C 
HETATM   30  N4  MK1 B 902       9.464  24.764   5.208  1.00 31.19    -0.350 N 
HETATM   31  H4  MK1 B 902       9.033  23.954   5.653  1.00  0.00     0.163 HD
HETATM   32  O3  MK1 B 902       9.873  25.828   3.248  1.00 32.66    -0.273 OA
BRANCH  30  33
HETATM   33  C22 MK1 B 902       9.998  25.829   6.039  1.00 29.22     0.147 C 
HETATM   34  C30 MK1 B 902       9.014  26.635   6.928  1.00 31.86    -0.027 A 
HETATM   35  C29 MK1 B 902       7.742  27.077   6.745  1.00 27.70     0.010 A 
HETATM   36  C25 MK1 B 902       9.658  26.987   8.299  1.00 31.29    -0.047 A 
HETATM   37  C28 MK1 B 902       7.069  27.790   7.728  1.00 29.01     0.001 A 
HETATM   38  C27 MK1 B 902       7.656  28.089   8.967  1.00 28.00     0.001 A 
HETATM   39  C26 MK1 B 902       8.964  27.686   9.258  1.00 32.00     0.008 A 
HETATM   40  C24 MK1 B 902      11.013  26.337   8.163  1.00 32.05     0.073 C 
HETATM   41  C23 MK1 B 902      11.003  25.310   7.054  1.00 28.82     0.149 C 
BRANCH  41  42
HETATM   42  O4  MK1 B 902      10.641  24.005   7.481  1.00 28.32    -0.393 OA
HETATM   43  H4  MK1 B 902      11.137  23.763   8.255  1.00  0.00     0.210 HD
ENDBRANCH  41  42
ENDBRANCH  30  33
ENDBRANCH  28  29
BRANCH  28  44
HETATM   44  C14 MK1 B 902       7.931  22.918   3.647  1.00 28.67     0.052 C 
BRANCH  44  45
HETATM   45  C15 MK1 B 902       6.763  23.512   2.950  1.00 26.89    -0.057 A 
HETATM   46  C16 MK1 B 902       6.879  24.199   1.740  1.00 29.22     0.007 A 
HETATM   47  C17 MK1 B 902       5.765  24.770   1.142  1.00 29.22     0.001 A 
HETATM   48  C18 MK1 B 902       4.526  24.648   1.774  1.00 30.97     0.000 A 
HETATM   49  C19 MK1 B 902       4.404  23.953   2.984  1.00 29.25     0.001 A 
HETATM   50  C20 MK1 B 902       5.533  23.384   3.572  1.00 29.96     0.007 A 
ENDBRANCH  44  45
ENDBRANCH  28  44
ENDBRANCH  27  28
ENDBRANCH  24  27
ENDBRANCH  23  24
ENDBRANCH   4  23
TORSDOF 14
ENDMDL
MODEL 6
REMARK VINA RESULT:     -10.0      2.352      4.603
REMARK  14 active torsions:
REMARK  status: ('A' for Active; 'I' for Inactive)
REMARK    1  A    between atoms: N1_1  and  C31_43 
REMARK    2  A    between atoms: C2_3  and  C3_4 
REMARK       I    between atoms: C3_4  and  N2_6 
REMARK    3  A    between atoms: N2_6  and  C4_8 
REMARK    4  A    between atoms: N3_12  and  C10_15 
REMARK    5  A    between atoms: C10_15  and  C11_16 
REMARK    6  A    between atoms: C11_16  and  O2_17 
REMARK    7  A    between atoms: C11_16  and  C12_19 
REMARK    8  A    between atoms: C12_19  and  C13_20 
REMARK    9  A    between atoms: C13_20  and  C21_28 
REMARK   10  A    between atoms: C13_20  and  C14_21 
REMARK   11  A    between atoms: C14_21  and  C15_22 
REMARK       I    between atoms: C21_28  and  N4_30 
REMARK   12  A    between atoms: N4_30  and  C22_32 
REMARK   13  A    between atoms: C23_33  and  O4_34 
REMARK   14  A    between atoms: C31_43  and  C32_44 
ROOT
HETATM    1  N1  MK1 B 902       5.480  24.181   3.131  1.00 28.25     0.096 N 
HETATM    2  C1  MK1 B 902       6.149  25.218   3.962  1.00 30.30     0.307 C 
HETATM    3  C2  MK1 B 902       7.387  25.942   3.473  1.00 27.27     0.200 C 
HETATM    4  N3  MK1 B 902       8.334  24.798   3.231  1.00 28.91    -0.395 N 
HETATM    5  C8  MK1 B 902       7.815  23.555   2.609  1.00 26.24     0.148 C 
HETATM    6  C9  MK1 B 902       6.394  23.146   2.942  1.00 27.47     0.292 C 
ENDROOT
BRANCH   1   7
HETATM    7  C31 MK1 B 902       4.140  23.749   3.547  1.00 36.25     0.312 C 
BRANCH   7   8
HETATM    8  C32 MK1 B 902       3.800  22.265   3.730  1.00 42.75    -0.015 A 
HETATM    9  C36 MK1 B 902       2.879  21.708   2.869  1.00 44.71     0.011 A 
HETATM   10  C35 MK1 B 902       2.551  20.366   3.043  1.00 49.34     0.018 A 
HETATM   11  C34 MK1 B 902       3.152  19.630   4.069  1.00 50.60     0.087 A 
HETATM   12  N5  MK1 B 902       4.089  20.114   4.980  1.00 51.38    -0.375 N 
HETATM   13  C33 MK1 B 902       4.365  21.470   4.738  1.00 47.41     0.096 A 
HETATM   14  H5  MK1 B 902       4.517  19.559   5.722  1.00  0.00     0.164 HD
ENDBRANCH   7   8
ENDBRANCH   1   7
BRANCH   3  15
HETATM   15  C3  MK1 B 902       7.852  26.874   4.559  1.00 28.85     0.242 C 
HETATM   16  O1  MK1 B 902       8.739  27.688   4.337  1.00 29.59    -0.271 OA
HETATM   17  N2  MK1 B 902       7.273  26.754   5.738  1.00 22.29    -0.351 N 
HETATM   18  H2  MK1 B 902       6.598  25.992   5.808  1.00  0.00     0.163 HD
BRANCH  17  19
HETATM   19  C4  MK1 B 902       7.439  27.520   6.931  1.00 23.47     0.022 C 
HETATM   20  C7  MK1 B 902       7.012  26.815   8.144  1.00 22.75     0.037 C 
HETATM   21  C5  MK1 B 902       6.486  28.725   6.828  1.00 27.66     0.037 C 
HETATM   22  C6  MK1 B 902       8.741  27.950   7.131  1.00 21.71     0.037 C 
ENDBRANCH  17  19
ENDBRANCH   3  15
BRANCH   4  23
HETATM   23  C10 MK1 B 902       9.628  25.110   2.657  1.00 20.86     0.149 C 
BRANCH  23  24
HETATM   24  C11 MK1 B 902      10.761  24.200   3.136  1.00 21.68     0.136 C 
BRANCH  24  25
HETATM   25  O2  MK1 B 902      11.330  24.031   1.872  1.00 15.87    -0.394 OA
HETATM   26  H2  MK1 B 902      12.230  23.752   1.991  1.00  0.00     0.210 HD
ENDBRANCH  24  25
BRANCH  24  27
HETATM   27  C12 MK1 B 902      11.874  24.641   4.104  1.00 21.49     0.047 C 
BRANCH  27  28
HETATM   28  C13 MK1 B 902      11.994  24.007   5.497  1.00 26.89     0.084 C 
BRANCH  28  29
HETATM   29  C21 MK1 B 902      12.404  22.540   5.426  1.00 29.35     0.222 C 
HETATM   30  N4  MK1 B 902      13.677  22.319   5.112  1.00 31.19    -0.350 N 
HETATM   31  H4  MK1 B 902      14.231  23.077   4.713  1.00  0.00     0.163 HD
HETATM   32  O3  MK1 B 902      11.610  21.647   5.756  1.00 32.66    -0.273 OA
BRANCH  30  33
HETATM   33  C22 MK1 B 902      14.298  21.023   5.323  1.00 29.22     0.147 C 
HETATM   34  C30 MK1 B 902      14.949  20.310   4.108  1.00 31.86    -0.027 A 
HETATM   35  C29 MK1 B 902      14.613  20.213   2.795  1.00 27.70     0.010 A 
HETATM   36  C25 MK1 B 902      16.250  19.568   4.526  1.00 31.29    -0.047 A 
HETATM   37  C28 MK1 B 902      15.391  19.500   1.894  1.00 29.01     0.001 A 
HETATM   38  C27 MK1 B 902      16.571  18.846   2.280  1.00 28.00     0.001 A 
HETATM   39  C26 MK1 B 902      17.008  18.877   3.609  1.00 32.00     0.008 A 
HETATM   40  C24 MK1 B 902      16.323  19.904   5.995  1.00 32.05     0.073 C 
HETATM   41  C23 MK1 B 902      15.450  21.097   6.312  1.00 28.82     0.149 C 
BRANCH  41  42
HETATM   42  O4  MK1 B 902      16.117  22.345   6.197  1.00 28.32    -0.393 OA
HETATM   43  H4  MK1 B 902      15.901  22.758   5.369  1.00  0.00     0.210 HD
ENDBRANCH  41  42
ENDBRANCH  30  33
ENDBRANCH  28  29
BRANCH  28  44
HETATM   44  C14 MK1 B 902      10.689  24.120   6.305  1.00 28.67     0.052 C 
BRANCH  44  45
HETATM   45  C15 MK1 B 902      10.876  24.846   7.586  1.00 26.89    -0.057 A 
HETATM   46  C16 MK1 B 902      12.061  25.511   7.909  1.00 29.22     0.007 A 
HETATM   47  C17 MK1 B 902      12.204  26.146   9.134  1.00 29.22     0.001 A 
HETATM   48  C18 MK1 B 902      11.142  26.106  10.039  1.00 30.97     0.000 A 
HETATM   49  C19 MK1 B 902       9.949  25.448   9.717  1.00 29.25     0.001 A 
HETATM   50  C20 MK1 B 902       9.820  24.815   8.481  1.00 29.96     0.007 A 
ENDBRANCH  44  45
ENDBRANCH  28  44
ENDBRANCH  27  28
ENDBRANCH  24  27
ENDBRANCH  23  24
ENDBRANCH   4  23
TORSDOF 14
ENDMDL
MODEL 7
REMARK VINA RESULT:      -9.9      1.960     10.276
REMARK  14 active torsions:
REMARK  status: ('A' for Active; 'I' for Inactive)
REMARK    1  A    between atoms: N1_1  and  C31_43 
REMARK    2  A    between atoms: C2_3  and  C3_4 
REMARK       I    between atoms: C3_4  and  N2_6 
REMARK    3  A    between atoms: N2_6  and  C4_8 
REMARK    4  A    between atoms: N3_12  and  C10_15 
REMARK    5  A    between atoms: C10_15  and  C11_16 
REMARK    6  A    between atoms: C11_16  and  O2_17 
REMARK    7  A    between atoms: C11_16  and  C12_19 
REMARK    8  A    between atoms: C12_19  and  C13_20 
REMARK    9  A    between atoms: C13_20  and  C21_28 
REMARK   10  A    between atoms: C13_20  and  C14_21 
REMARK   11  A    between atoms: C14_21  and  C15_22 
REMARK       I    between atoms: C21_28  and  N4_30 
REMARK   12  A    between atoms: N4_30  and  C22_32 
REMARK   13  A    between atoms: C23_33  and  O4_34 
REMARK   14  A    between atoms: C31_43  and  C32_44 
ROOT
HETATM    1  N1  MK1 B 902      14.550  19.063   4.048  1.00 28.25     0.096 N 
HETATM    2  C1  MK1 B 902      14.880  19.739   5.332  1.00 30.30     0.307 C 
HETATM    3  C2  MK1 B 902      14.110  20.956   5.804  1.00 27.27     0.200 C 
HETATM    4  N3  MK1 B 902      14.320  21.912   4.661  1.00 28.91    -0.395 N 
HETATM    5  C8  MK1 B 902      14.259  21.394   3.271  1.00 26.24     0.148 C 
HETATM    6  C9  MK1 B 902      14.765  19.987   3.025  1.00 27.47     0.292 C 
ENDROOT
BRANCH   1   7
HETATM    7  C31 MK1 B 902      15.138  17.739   3.814  1.00 36.25     0.312 C 
BRANCH   7   8
HETATM    8  C32 MK1 B 902      16.648  17.502   3.939  1.00 42.75    -0.015 A 
HETATM    9  C36 MK1 B 902      17.099  16.827   5.053  1.00 44.71     0.011 A 
HETATM   10  C35 MK1 B 902      18.471  16.626   5.182  1.00 49.34     0.018 A 
HETATM   11  C34 MK1 B 902      19.341  17.108   4.200  1.00 50.60     0.087 A 
HETATM   12  N5  MK1 B 902      18.969  17.799   3.048  1.00 51.38    -0.375 N 
HETATM   13  C33 MK1 B 902      17.575  17.959   2.991  1.00 47.41     0.096 A 
HETATM   14  H5  MK1 B 902      19.620  18.142   2.342  1.00  0.00     0.164 HD
ENDBRANCH   7   8
ENDBRANCH   1   7
BRANCH   3  15
HETATM   15  C3  MK1 B 902      14.721  21.434   7.092  1.00 28.85     0.242 C 
HETATM   16  O1  MK1 B 902      14.047  22.055   7.904  1.00 29.59    -0.271 OA
HETATM   17  N2  MK1 B 902      15.998  21.165   7.285  1.00 22.29    -0.351 N 
HETATM   18  H2  MK1 B 902      16.461  20.702   6.502  1.00  0.00     0.163 HD
BRANCH  17  19
HETATM   19  C4  MK1 B 902      16.836  21.417   8.413  1.00 23.47     0.022 C 
HETATM   20  C7  MK1 B 902      18.218  20.963   8.229  1.00 22.75     0.037 C 
HETATM   21  C5  MK1 B 902      16.298  20.559   9.573  1.00 27.66     0.037 C 
HETATM   22  C6  MK1 B 902      16.877  22.753   8.779  1.00 21.71     0.037 C 
ENDBRANCH  17  19
ENDBRANCH   3  15
BRANCH   4  23
HETATM   23  C10 MK1 B 902      13.636  23.188   4.720  1.00 20.86     0.149 C 
BRANCH  23  24
HETATM   24  C11 MK1 B 902      12.206  23.158   4.177  1.00 21.68     0.136 C 
BRANCH  24  25
HETATM   25  O2  MK1 B 902      11.656  22.549   5.307  1.00 15.87    -0.394 OA
HETATM   26  H2  MK1 B 902      11.694  21.608   5.182  1.00  0.00     0.210 HD
ENDBRANCH  24  25
BRANCH  24  27
HETATM   27  C12 MK1 B 902      11.375  24.415   3.861  1.00 21.49     0.047 C 
BRANCH  27  28
HETATM   28  C13 MK1 B 902      10.173  24.798   4.737  1.00 26.89     0.084 C 
BRANCH  28  29
HETATM   29  C21 MK1 B 902       8.877  24.853   3.938  1.00 29.35     0.222 C 
HETATM   30  N4  MK1 B 902       7.779  25.095   4.650  1.00 31.19    -0.350 N 
HETATM   31  H4  MK1 B 902       7.810  24.992   5.664  1.00  0.00     0.163 HD
HETATM   32  O3  MK1 B 902       8.895  24.789   2.700  1.00 32.66    -0.273 OA
BRANCH  30  33
HETATM   33  C22 MK1 B 902       6.536  25.501   4.017  1.00 29.22     0.147 C 
HETATM   34  C30 MK1 B 902       5.380  24.470   3.931  1.00 31.86    -0.027 A 
HETATM   35  C29 MK1 B 902       5.342  23.129   3.714  1.00 27.70     0.010 A 
HETATM   36  C25 MK1 B 902       4.001  25.157   4.144  1.00 31.29    -0.047 A 
HETATM   37  C28 MK1 B 902       4.144  22.428   3.691  1.00 29.01     0.001 A 
HETATM   38  C27 MK1 B 902       2.907  23.056   3.899  1.00 28.00     0.001 A 
HETATM   39  C26 MK1 B 902       2.831  24.435   4.127  1.00 32.00     0.008 A 
HETATM   40  C24 MK1 B 902       4.417  26.588   4.375  1.00 32.05     0.073 C 
HETATM   41  C23 MK1 B 902       5.881  26.665   4.742  1.00 28.82     0.149 C 
BRANCH  41  42
HETATM   42  O4  MK1 B 902       6.130  26.577   6.138  1.00 28.32    -0.393 OA
HETATM   43  H4  MK1 B 902       5.836  25.738   6.472  1.00  0.00     0.210 HD
ENDBRANCH  41  42
ENDBRANCH  30  33
ENDBRANCH  28  29
BRANCH  28  44
HETATM   44  C14 MK1 B 902      10.378  26.147   5.449  1.00 28.67     0.052 C 
BRANCH  44  45
HETATM   45  C15 MK1 B 902      10.768  25.985   6.872  1.00 26.89    -0.057 A 
HETATM   46  C16 MK1 B 902       9.860  26.134   7.922  1.00 29.22     0.007 A 
HETATM   47  C17 MK1 B 902      10.277  26.009   9.239  1.00 29.22     0.001 A 
HETATM   48  C18 MK1 B 902      11.622  25.734   9.496  1.00 30.97     0.000 A 
HETATM   49  C19 MK1 B 902      12.534  25.576   8.445  1.00 29.25     0.001 A 
HETATM   50  C20 MK1 B 902      12.099  25.703   7.126  1.00 29.96     0.007 A 
ENDBRANCH  44  45
ENDBRANCH  28  44
ENDBRANCH  27  28
ENDBRANCH  24  27
ENDBRANCH  23  24
ENDBRANCH   4  23
TORSDOF 14
ENDMDL
MODEL 8
REMARK VINA RESULT:      -9.6      2.468     11.253
REMARK  14 active torsions:
REMARK  status: ('A' for Active; 'I' for Inactive)
REMARK    1  A    between atoms: N1_1  and  C31_43 
REMARK    2  A    between atoms: C2_3  and  C3_4 
REMARK       I    between atoms: C3_4  and  N2_6 
REMARK    3  A    between atoms: N2_6  and  C4_8 
REMARK    4  A    between atoms: N3_12  and  C10_15 
REMARK    5  A    between atoms: C10_15  and  C11_16 
REMARK    6  A    between atoms: C11_16  and  O2_17 
REMARK    7  A    between atoms: C11_16  and  C12_19 
REMARK    8  A    between atoms: C12_19  and  C13_20 
REMARK    9  A    between atoms: C13_20  and  C21_28 
REMARK   10  A    between atoms: C13_20  and  C14_21 
REMARK   11  A    between atoms: C14_21  and  C15_22 
REMARK       I    between atoms: C21_28  and  N4_30 
REMARK   12  A    between atoms: N4_30  and  C22_32 
REMARK   13  A    between atoms: C23_33  and  O4_34 
REMARK   14  A    between atoms: C31_43  and  C32_44 
ROOT
HETATM    1  N1  MK1 B 902      17.721  19.944   9.979  1.00 28.25     0.096 N 
HETATM    2  C1  MK1 B 902      17.881  19.484   8.574  1.00 30.30     0.307 C 
HETATM    3  C2  MK1 B 902      17.588  20.404   7.405  1.00 27.27     0.200 C 
HETATM    4  N3  MK1 B 902      16.151  20.770   7.657  1.00 28.91    -0.395 N 
HETATM    5  C8  MK1 B 902      15.715  21.050   9.048  1.00 26.24     0.148 C 
HETATM    6  C9  MK1 B 902      16.377  20.264  10.162  1.00 27.47     0.292 C 
ENDROOT
BRANCH   1   7
HETATM    7  C31 MK1 B 902      18.301  19.101  11.032  1.00 36.25     0.312 C 
BRANCH   7   8
HETATM    8  C32 MK1 B 902      18.261  17.571  10.942  1.00 42.75    -0.015 A 
HETATM    9  C36 MK1 B 902      17.060  16.946  11.200  1.00 44.71     0.011 A 
HETATM   10  C35 MK1 B 902      17.023  15.555  11.139  1.00 49.34     0.018 A 
HETATM   11  C34 MK1 B 902      18.183  14.840  10.827  1.00 50.60     0.087 A 
HETATM   12  N5  MK1 B 902      19.433  15.392  10.553  1.00 51.38    -0.375 N 
HETATM   13  C33 MK1 B 902      19.387  16.794  10.634  1.00 47.41     0.096 A 
HETATM   14  H5  MK1 B 902      20.268  14.852  10.326  1.00  0.00     0.164 HD
ENDBRANCH   7   8
ENDBRANCH   1   7
BRANCH   3  15
HETATM   15  C3  MK1 B 902      17.785  19.629   6.131  1.00 28.85     0.242 C 
HETATM   16  O1  MK1 B 902      18.824  19.742   5.492  1.00 29.59    -0.271 OA
HETATM   17  N2  MK1 B 902      16.792  18.852   5.744  1.00 22.29    -0.351 N 
HETATM   18  H2  MK1 B 902      15.957  18.901   6.329  1.00  0.00     0.163 HD
BRANCH  17  19
HETATM   19  C4  MK1 B 902      16.698  17.953   4.638  1.00 23.47     0.022 C 
HETATM   20  C7  MK1 B 902      16.977  18.585   3.345  1.00 22.75     0.037 C 
HETATM   21  C5  MK1 B 902      15.227  17.510   4.543  1.00 27.66     0.037 C 
HETATM   22  C6  MK1 B 902      17.528  16.849   4.756  1.00 21.71     0.037 C 
ENDBRANCH  17  19
ENDBRANCH   3  15
BRANCH   4  23
HETATM   23  C10 MK1 B 902      15.538  21.734   6.766  1.00 20.86     0.149 C 
BRANCH  23  24
HETATM   24  C11 MK1 B 902      14.691  22.792   7.475  1.00 21.68     0.136 C 
BRANCH  24  25
HETATM   25  O2  MK1 B 902      15.285  23.880   6.833  1.00 15.87    -0.394 OA
HETATM   26  H2  MK1 B 902      15.075  24.664   7.328  1.00  0.00     0.210 HD
ENDBRANCH  24  25
BRANCH  24  27
HETATM   27  C12 MK1 B 902      13.165  22.923   7.320  1.00 21.49     0.047 C 
BRANCH  27  28
HETATM   28  C13 MK1 B 902      12.553  23.436   6.008  1.00 26.89     0.084 C 
BRANCH  28  29
HETATM   29  C21 MK1 B 902      11.859  24.780   6.186  1.00 29.35     0.222 C 
HETATM   30  N4  MK1 B 902      10.930  24.821   7.138  1.00 31.19    -0.350 N 
HETATM   31  H4  MK1 B 902      10.567  23.946   7.517  1.00  0.00     0.163 HD
HETATM   32  O3  MK1 B 902      12.238  25.776   5.551  1.00 32.66    -0.273 OA
BRANCH  30  33
HETATM   33  C22 MK1 B 902      10.421  26.081   7.652  1.00 29.22     0.147 C 
HETATM   34  C30 MK1 B 902       9.201  26.726   6.944  1.00 31.86    -0.027 A 
HETATM   35  C29 MK1 B 902       8.818  26.815   5.643  1.00 27.70     0.010 A 
HETATM   36  C25 MK1 B 902       8.247  27.396   7.973  1.00 31.29    -0.047 A 
HETATM   37  C28 MK1 B 902       7.647  27.461   5.270  1.00 29.01     0.001 A 
HETATM   38  C27 MK1 B 902       6.787  28.049   6.209  1.00 28.00     0.001 A 
HETATM   39  C26 MK1 B 902       7.087  28.019   7.576  1.00 32.00     0.008 A 
HETATM   40  C24 MK1 B 902       8.951  27.087   9.272  1.00 32.05     0.073 C 
HETATM   41  C23 MK1 B 902       9.937  25.958   9.087  1.00 28.82     0.149 C 
BRANCH  41  42
HETATM   42  O4  MK1 B 902       9.385  24.668   9.311  1.00 28.32    -0.393 OA
HETATM   43  H4  MK1 B 902      10.069  24.055   9.553  1.00  0.00     0.210 HD
ENDBRANCH  41  42
ENDBRANCH  30  33
ENDBRANCH  28  29
BRANCH  28  44
HETATM   44  C14 MK1 B 902      11.553  22.436   5.401  1.00 28.67     0.052 C 
BRANCH  44  45
HETATM   45  C15 MK1 B 902      10.766  23.024   4.289  1.00 26.89    -0.057 A 
HETATM   46  C16 MK1 B 902       9.383  23.203   4.358  1.00 29.22     0.007 A 
HETATM   47  C17 MK1 B 902       8.682  23.723   3.280  1.00 29.22     0.001 A 
HETATM   48  C18 MK1 B 902       9.385  24.063   2.123  1.00 30.97     0.000 A 
HETATM   49  C19 MK1 B 902      10.773  23.893   2.051  1.00 29.25     0.001 A 
HETATM   50  C20 MK1 B 902      11.464  23.369   3.144  1.00 29.96     0.007 A 
ENDBRANCH  44  45
ENDBRANCH  28  44
ENDBRANCH  27  28
ENDBRANCH  24  27
ENDBRANCH  23  24
ENDBRANCH   4  23
TORSDOF 14
ENDMDL
MODEL 9
REMARK VINA RESULT:      -9.6      1.963      9.656
REMARK  14 active torsions:
REMARK  status: ('A' for Active; 'I' for Inactive)
REMARK    1  A    between atoms: N1_1  and  C31_43 
REMARK    2  A    between atoms: C2_3  and  C3_4 
REMARK       I    between atoms: C3_4  and  N2_6 
REMARK    3  A    between atoms: N2_6  and  C4_8 
REMARK    4  A    between atoms: N3_12  and  C10_15 
REMARK    5  A    between atoms: C10_15  and  C11_16 
REMARK    6  A    between atoms: C11_16  and  O2_17 
REMARK    7  A    between atoms: C11_16  and  C12_19 
REMARK    8  A    between atoms: C12_19  and  C13_20 
REMARK    9  A    between atoms: C13_20  and  C21_28 
REMARK   10  A    between atoms: C13_20  and  C14_21 
REMARK   11  A    between atoms: C14_21  and  C15_22 
REMARK       I    between atoms: C21_28  and  N4_30 
REMARK   12  A    between atoms: N4_30  and  C22_32 
REMARK   13  A    between atoms: C23_33  and  O4_34 
REMARK   14  A    between atoms: C31_43  and  C32_44 
ROOT
HETATM    1  N1  MK1 B 902      14.939  18.638   4.233  1.00 28.25     0.096 N 
HETATM    2  C1  MK1 B 902      14.952  19.509   5.439  1.00 30.30     0.307 C 
HETATM    3  C2  MK1 B 902      14.133  20.783   5.499  1.00 27.27     0.200 C 
HETATM    4  N3  MK1 B 902      14.668  21.546   4.318  1.00 28.91    -0.395 N 
HETATM    5  C8  MK1 B 902      14.949  20.814   3.057  1.00 26.24     0.148 C 
HETATM    6  C9  MK1 B 902      15.447  19.387   3.173  1.00 27.47     0.292 C 
ENDROOT
BRANCH   1   7
HETATM    7  C31 MK1 B 902      15.517  17.295   4.369  1.00 36.25     0.312 C 
BRANCH   7   8
HETATM    8  C32 MK1 B 902      17.033  17.082   4.442  1.00 42.75    -0.015 A 
HETATM    9  C36 MK1 B 902      17.530  16.390   5.526  1.00 44.71     0.011 A 
HETATM   10  C35 MK1 B 902      18.909  16.210   5.609  1.00 49.34     0.018 A 
HETATM   11  C34 MK1 B 902      19.740  16.728   4.611  1.00 50.60     0.087 A 
HETATM   12  N5  MK1 B 902      19.320  17.436   3.486  1.00 51.38    -0.375 N 
HETATM   13  C33 MK1 B 902      17.922  17.574   3.476  1.00 47.41     0.096 A 
HETATM   14  H5  MK1 B 902      19.944  17.805   2.768  1.00  0.00     0.164 HD
ENDBRANCH   7   8
ENDBRANCH   1   7
BRANCH   3  15
HETATM   15  C3  MK1 B 902      14.408  21.462   6.813  1.00 28.85     0.242 C 
HETATM   16  O1  MK1 B 902      13.492  21.957   7.458  1.00 29.59    -0.271 OA
HETATM   17  N2  MK1 B 902      15.664  21.504   7.213  1.00 22.29    -0.351 N 
HETATM   18  H2  MK1 B 902      16.337  21.115   6.552  1.00  0.00     0.163 HD
BRANCH  17  19
HETATM   19  C4  MK1 B 902      16.233  22.006   8.423  1.00 23.47     0.022 C 
HETATM   20  C7  MK1 B 902      16.303  23.470   8.474  1.00 22.75     0.037 C 
HETATM   21  C5  MK1 B 902      17.702  21.548   8.453  1.00 27.66     0.037 C 
HETATM   22  C6  MK1 B 902      15.570  21.576   9.561  1.00 21.71     0.037 C 
ENDBRANCH  17  19
ENDBRANCH   3  15
BRANCH   4  23
HETATM   23  C10 MK1 B 902      14.041  22.813   3.999  1.00 20.86     0.149 C 
BRANCH  23  24
HETATM   24  C11 MK1 B 902      14.139  23.858   5.111  1.00 21.68     0.136 C 
BRANCH  24  25
HETATM   25  O2  MK1 B 902      15.389  24.342   4.720  1.00 15.87    -0.394 OA
HETATM   26  H2  MK1 B 902      15.915  24.465   5.502  1.00  0.00     0.210 HD
ENDBRANCH  24  25
BRANCH  24  27
HETATM   27  C12 MK1 B 902      13.187  25.060   5.255  1.00 21.49     0.047 C 
BRANCH  27  28
HETATM   28  C13 MK1 B 902      11.669  24.848   5.341  1.00 26.89     0.084 C 
BRANCH  28  29
HETATM   29  C21 MK1 B 902      11.054  24.552   3.978  1.00 29.35     0.222 C 
HETATM   30  N4  MK1 B 902       9.773  24.194   3.997  1.00 31.19    -0.350 N 
HETATM   31  H4  MK1 B 902       9.349  23.907   4.879  1.00  0.00     0.163 HD
HETATM   32  O3  MK1 B 902      11.698  24.754   2.938  1.00 32.66    -0.273 OA
BRANCH  30  33
HETATM   33  C22 MK1 B 902       8.964  24.200   2.790  1.00 29.22     0.147 C 
HETATM   34  C30 MK1 B 902       7.441  23.934   2.922  1.00 31.86    -0.027 A 
HETATM   35  C29 MK1 B 902       6.704  23.108   3.710  1.00 27.70     0.010 A 
HETATM   36  C25 MK1 B 902       6.631  24.816   1.929  1.00 31.29    -0.047 A 
HETATM   37  C28 MK1 B 902       5.319  23.067   3.630  1.00 29.01     0.001 A 
HETATM   38  C27 MK1 B 902       4.598  23.878   2.740  1.00 28.00     0.001 A 
HETATM   39  C26 MK1 B 902       5.258  24.762   1.879  1.00 32.00     0.008 A 
HETATM   40  C24 MK1 B 902       7.735  25.597   1.260  1.00 32.05     0.073 C 
HETATM   41  C23 MK1 B 902       8.999  25.547   2.087  1.00 28.82     0.149 C 
BRANCH  41  42
HETATM   42  O4  MK1 B 902       9.107  26.596   3.039  1.00 28.32    -0.393 OA
HETATM   43  H4  MK1 B 902       9.175  27.435   2.598  1.00  0.00     0.210 HD
ENDBRANCH  41  42
ENDBRANCH  30  33
ENDBRANCH  28  29
BRANCH  28  44
HETATM   44  C14 MK1 B 902      10.946  26.056   5.961  1.00 28.67     0.052 C 
BRANCH  44  45
HETATM   45  C15 MK1 B 902      10.602  25.840   7.389  1.00 26.89    -0.057 A 
HETATM   46  C16 MK1 B 902       9.325  25.458   7.805  1.00 29.22     0.007 A 
HETATM   47  C17 MK1 B 902       9.038  25.303   9.153  1.00 29.22     0.001 A 
HETATM   48  C18 MK1 B 902      10.049  25.539  10.087  1.00 30.97     0.000 A 
HETATM   49  C19 MK1 B 902      11.333  25.915   9.674  1.00 29.25     0.001 A 
HETATM   50  C20 MK1 B 902      11.606  26.066   8.315  1.00 29.96     0.007 A 
ENDBRANCH  44  45
ENDBRANCH  28  44
ENDBRANCH  27  28
ENDBRANCH  24  27
ENDBRANCH  23  24
ENDBRANCH   4  23
TORSDOF 14
ENDMDL
MODEL 10
REMARK VINA RESULT:      -9.4      2.212     10.442
REMARK  14 active torsions:
REMARK  status: ('A' for Active; 'I' for Inactive)
REMARK    1  A    between atoms: N1_1  and  C31_43 
REMARK    2  A    between atoms: C2_3  and  C3_4 
REMARK       I    between atoms: C3_4  and  N2_6 
REMARK    3  A    between atoms: N2_6  and  C4_8 
REMARK    4  A    between atoms: N3_12  and  C10_15 
REMARK    5  A    between atoms: C10_15  and  C11_16 
REMARK    6  A    between atoms: C11_16  and  O2_17 
REMARK    7  A    between atoms: C11_16  and  C12_19 
REMARK    8  A    between atoms: C12_19  and  C13_20 
REMARK    9  A    between atoms: C13_20  and  C21_28 
REMARK   10  A    between atoms: C13_20  and  C14_21 
REMARK   11  A    between atoms: C14_21  and  C15_22 
REMARK       I    between atoms: C21_28  and  N4_30 
REMARK   12  A    between atoms: N4_30  and  C22_32 
REMARK   13  A    between atoms: C23_33  and  O4_34 
REMARK   14  A    between atoms: C31_43  and  C32_44 
ROOT
HETATM    1  N1  MK1 B 902      17.526  20.049   9.895  1.00 28.25     0.096 N 
HETATM    2  C1  MK1 B 902      17.738  19.529   8.518  1.00 30.30     0.307 C 
HETATM    3  C2  MK1 B 902      17.541  20.412   7.302  1.00 27.27     0.200 C 
HETATM    4  N3  MK1 B 902      16.107  20.840   7.465  1.00 28.91    -0.395 N 
HETATM    5  C8  MK1 B 902      15.613  21.191   8.820  1.00 26.24     0.148 C 
HETATM    6  C9  MK1 B 902      16.187  20.426   9.995  1.00 27.47     0.292 C 
ENDROOT
BRANCH   1   7
HETATM    7  C31 MK1 B 902      18.018  19.228  11.007  1.00 36.25     0.312 C 
BRANCH   7   8
HETATM    8  C32 MK1 B 902      18.000  17.696  10.938  1.00 42.75    -0.015 A 
HETATM    9  C36 MK1 B 902      16.816  17.056  11.235  1.00 44.71     0.011 A 
HETATM   10  C35 MK1 B 902      16.799  15.664  11.193  1.00 49.34     0.018 A 
HETATM   11  C34 MK1 B 902      17.962  14.963  10.859  1.00 50.60     0.087 A 
HETATM   12  N5  MK1 B 902      19.196  15.531  10.547  1.00 51.38    -0.375 N 
HETATM   13  C33 MK1 B 902      19.130  16.932  10.610  1.00 47.41     0.096 A 
HETATM   14  H5  MK1 B 902      20.033  15.000  10.305  1.00  0.00     0.164 HD
ENDBRANCH   7   8
ENDBRANCH   1   7
BRANCH   3  15
HETATM   15  C3  MK1 B 902      17.771  19.580   6.069  1.00 28.85     0.242 C 
HETATM   16  O1  MK1 B 902      18.812  19.690   5.435  1.00 29.59    -0.271 OA
HETATM   17  N2  MK1 B 902      16.804  18.757   5.714  1.00 22.29    -0.351 N 
HETATM   18  H2  MK1 B 902      15.962  18.812   6.288  1.00  0.00     0.163 HD
BRANCH  17  19
HETATM   19  C4  MK1 B 902      16.745  17.802   4.653  1.00 23.47     0.022 C 
HETATM   20  C7  MK1 B 902      17.132  18.350   3.349  1.00 22.75     0.037 C 
HETATM   21  C5  MK1 B 902      15.266  17.409   4.485  1.00 27.66     0.037 C 
HETATM   22  C6  MK1 B 902      17.520  16.677   4.884  1.00 21.71     0.037 C 
ENDBRANCH  17  19
ENDBRANCH   3  15
BRANCH   4  23
HETATM   23  C10 MK1 B 902      15.579  21.790   6.507  1.00 20.86     0.149 C 
BRANCH  23  24
HETATM   24  C11 MK1 B 902      15.091  23.100   7.129  1.00 21.68     0.136 C 
BRANCH  24  25
HETATM   25  O2  MK1 B 902      16.284  23.793   6.917  1.00 15.87    -0.394 OA
HETATM   26  H2  MK1 B 902      16.885  23.563   7.617  1.00  0.00     0.210 HD
ENDBRANCH  24  25
BRANCH  24  27
HETATM   27  C12 MK1 B 902      13.940  23.950   6.560  1.00 21.49     0.047 C 
BRANCH  27  28
HETATM   28  C13 MK1 B 902      12.679  24.217   7.395  1.00 26.89     0.084 C 
BRANCH  28  29
HETATM   29  C21 MK1 B 902      11.416  23.728   6.697  1.00 29.35     0.222 C 
HETATM   30  N4  MK1 B 902      11.420  23.833   5.370  1.00 31.19    -0.350 N 
HETATM   31  H4  MK1 B 902      12.117  24.426   4.920  1.00  0.00     0.163 HD
HETATM   32  O3  MK1 B 902      10.514  23.170   7.340  1.00 32.66    -0.273 OA
BRANCH  30  33
HETATM   33  C22 MK1 B 902      10.456  23.123   4.547  1.00 29.22     0.147 C 
HETATM   34  C30 MK1 B 902       9.234  23.907   4.000  1.00 31.86    -0.027 A 
HETATM   35  C29 MK1 B 902       8.445  24.884   4.520  1.00 27.70     0.010 A 
HETATM   36  C25 MK1 B 902       8.875  23.449   2.558  1.00 31.29    -0.047 A 
HETATM   37  C28 MK1 B 902       7.393  25.433   3.799  1.00 29.01     0.001 A 
HETATM   38  C27 MK1 B 902       7.088  25.021   2.493  1.00 28.00     0.001 A 
HETATM   39  C26 MK1 B 902       7.834  24.018   1.864  1.00 32.00     0.008 A 
HETATM   40  C24 MK1 B 902       9.940  22.410   2.306  1.00 32.05     0.073 C 
HETATM   41  C23 MK1 B 902      11.085  22.574   3.278  1.00 28.82     0.149 C 
BRANCH  41  42
HETATM   42  O4  MK1 B 902      12.109  23.445   2.820  1.00 28.32    -0.393 OA
HETATM   43  H4  MK1 B 902      12.653  23.004   2.178  1.00  0.00     0.210 HD
ENDBRANCH  41  42
ENDBRANCH  30  33
ENDBRANCH  28  29
BRANCH  28  44
HETATM   44  C14 MK1 B 902      12.512  25.707   7.739  1.00 28.67     0.052 C 
BRANCH  44  45
HETATM   45  C15 MK1 B 902      11.110  26.058   8.078  1.00 26.89    -0.057 A 
HETATM   46  C16 MK1 B 902      10.263  26.719   7.187  1.00 29.22     0.007 A 
HETATM   47  C17 MK1 B 902       8.971  27.060   7.560  1.00 29.22     0.001 A 
HETATM   48  C18 MK1 B 902       8.534  26.732   8.845  1.00 30.97     0.000 A 
HETATM   49  C19 MK1 B 902       9.378  26.063   9.740  1.00 29.25     0.001 A 
HETATM   50  C20 MK1 B 902      10.674  25.726   9.349  1.00 29.96     0.007 A 
ENDBRANCH  44  45
ENDBRANCH  28  44
ENDBRANCH  27  28
ENDBRANCH  24  27
ENDBRANCH  23  24
ENDBRANCH   4  23
TORSDOF 14
ENDMDL
MODEL 11
REMARK VINA RESULT:      -9.2      1.892     10.455
REMARK  14 active torsions:
REMARK  status: ('A' for Active; 'I' for Inactive)
REMARK    1  A    between atoms: N1_1  and  C31_43 
REMARK    2  A    between atoms: C2_3  and  C3_4 
REMARK       I    between atoms: C3_4  and  N2_6 
REMARK    3  A    between atoms: N2_6  and  C4_8 
REMARK    4  A    between atoms: N3_12  and  C10_15 
REMARK    5  A    between atoms: C10_15  and  C11_16 
REMARK    6  A    between atoms: C11_16  and  O2_17 
REMARK    7  A    between atoms: C11_16  and  C12_19 
REMARK    8  A    between atoms: C12_19  and  C13_20 
REMARK    9  A    between atoms: C13_20  and  C21_28 
REMARK   10  A    between atoms: C13_20  and  C14_21 
REMARK   11  A    between atoms: C14_21  and  C15_22 
REMARK       I    between atoms: C21_28  and  N4_30 
REMARK   12  A    between atoms: N4_30  and  C22_32 
REMARK   13  A    between atoms: C23_33  and  O4_34 
REMARK   14  A    between atoms: C31_43  and  C32_44 
ROOT
HETATM    1  N1  MK1 B 902      14.895  18.930   4.250  1.00 28.25     0.096 N 
HETATM    2  C1  MK1 B 902      15.050  19.748   5.483  1.00 30.30     0.307 C 
HETATM    3  C2  MK1 B 902      14.369  21.095   5.626  1.00 27.27     0.200 C 
HETATM    4  N3  MK1 B 902      14.927  21.846   4.447  1.00 28.91    -0.395 N 
HETATM    5  C8  MK1 B 902      15.076  21.138   3.151  1.00 26.24     0.148 C 
HETATM    6  C9  MK1 B 902      15.430  19.665   3.193  1.00 27.47     0.292 C 
ENDROOT
BRANCH   1   7
HETATM    7  C31 MK1 B 902      15.337  17.532   4.312  1.00 36.25     0.312 C 
BRANCH   7   8
HETATM    8  C32 MK1 B 902      16.818  17.169   4.474  1.00 42.75    -0.015 A 
HETATM    9  C36 MK1 B 902      17.631  17.290   3.367  1.00 44.71     0.011 A 
HETATM   10  C35 MK1 B 902      18.972  16.942   3.502  1.00 49.34     0.018 A 
HETATM   11  C34 MK1 B 902      19.453  16.486   4.733  1.00 50.60     0.087 A 
HETATM   12  N5  MK1 B 902      18.702  16.335   5.897  1.00 51.38    -0.375 N 
HETATM   13  C33 MK1 B 902      17.365  16.705   5.679  1.00 47.41     0.096 A 
HETATM   14  H5  MK1 B 902      19.073  16.000   6.787  1.00  0.00     0.164 HD
ENDBRANCH   7   8
ENDBRANCH   1   7
BRANCH   3  15
HETATM   15  C3  MK1 B 902      14.770  21.691   6.948  1.00 28.85     0.242 C 
HETATM   16  O1  MK1 B 902      13.968  22.348   7.599  1.00 29.59    -0.271 OA
HETATM   17  N2  MK1 B 902      16.009  21.481   7.348  1.00 22.29    -0.351 N 
HETATM   18  H2  MK1 B 902      16.594  20.976   6.682  1.00  0.00     0.163 HD
BRANCH  17  19
HETATM   19  C4  MK1 B 902      16.663  21.848   8.563  1.00 23.47     0.022 C 
HETATM   20  C7  MK1 B 902      18.071  21.442   8.615  1.00 22.75     0.037 C 
HETATM   21  C5  MK1 B 902      15.989  21.051   9.694  1.00 27.66     0.037 C 
HETATM   22  C6  MK1 B 902      16.606  23.207   8.829  1.00 21.71     0.037 C 
ENDBRANCH  17  19
ENDBRANCH   3  15
BRANCH   4  23
HETATM   23  C10 MK1 B 902      14.420  23.181   4.202  1.00 20.86     0.149 C 
BRANCH  23  24
HETATM   24  C11 MK1 B 902      12.909  23.321   4.391  1.00 21.68     0.136 C 
BRANCH  24  25
HETATM   25  O2  MK1 B 902      12.916  24.717   4.434  1.00 15.87    -0.394 OA
HETATM   26  H2  MK1 B 902      12.695  25.038   3.568  1.00  0.00     0.210 HD
ENDBRANCH  24  25
BRANCH  24  27
HETATM   27  C12 MK1 B 902      11.863  22.883   3.350  1.00 21.49     0.047 C 
BRANCH  27  28
HETATM   28  C13 MK1 B 902      10.488  23.563   3.288  1.00 26.89     0.084 C 
BRANCH  28  29
HETATM   29  C21 MK1 B 902      10.050  24.094   4.648  1.00 29.35     0.222 C 
HETATM   30  N4  MK1 B 902       9.813  25.402   4.700  1.00 31.19    -0.350 N 
HETATM   31  H4  MK1 B 902      10.151  26.000   3.946  1.00  0.00     0.163 HD
HETATM   32  O3  MK1 B 902       9.828  23.316   5.587  1.00 32.66    -0.273 OA
BRANCH  30  33
HETATM   33  C22 MK1 B 902       9.084  26.000   5.805  1.00 29.22     0.147 C 
HETATM   34  C30 MK1 B 902       9.871  26.386   7.085  1.00 31.86    -0.027 A 
HETATM   35  C29 MK1 B 902      10.905  25.810   7.752  1.00 27.70     0.010 A 
HETATM   36  C25 MK1 B 902       9.333  27.712   7.694  1.00 31.29    -0.047 A 
HETATM   37  C28 MK1 B 902      11.441  26.380   8.899  1.00 29.01     0.001 A 
HETATM   38  C27 MK1 B 902      10.956  27.584   9.431  1.00 28.00     0.001 A 
HETATM   39  C26 MK1 B 902       9.891  28.259   8.826  1.00 32.00     0.008 A 
HETATM   40  C24 MK1 B 902       8.245  28.067   6.711  1.00 32.05     0.073 C 
HETATM   41  C23 MK1 B 902       8.433  27.316   5.413  1.00 28.82     0.149 C 
BRANCH  41  42
HETATM   42  O4  MK1 B 902       9.239  27.999   4.464  1.00 28.32    -0.393 OA
HETATM   43  H4  MK1 B 902       9.244  28.931   4.647  1.00  0.00     0.210 HD
ENDBRANCH  41  42
ENDBRANCH  30  33
ENDBRANCH  28  29
BRANCH  28  44
HETATM   44  C14 MK1 B 902       9.397  22.624   2.745  1.00 28.67     0.052 C 
BRANCH  44  45
HETATM   45  C15 MK1 B 902       8.084  23.302   2.603  1.00 26.89    -0.057 A 
HETATM   46  C16 MK1 B 902       7.847  24.291   1.646  1.00 29.22     0.007 A 
HETATM   47  C17 MK1 B 902       6.614  24.923   1.574  1.00 29.22     0.001 A 
HETATM   48  C18 MK1 B 902       5.615  24.555   2.477  1.00 30.97     0.000 A 
HETATM   49  C19 MK1 B 902       5.846  23.558   3.434  1.00 29.25     0.001 A 
HETATM   50  C20 MK1 B 902       7.090  22.931   3.493  1.00 29.96     0.007 A 
ENDBRANCH  44  45
ENDBRANCH  28  44
ENDBRANCH  27  28
ENDBRANCH  24  27
ENDBRANCH  23  24
ENDBRANCH   4  23
TORSDOF 14
ENDMDL
MODEL 12
REMARK VINA RESULT:      -9.2      2.755     11.364
REMARK  14 active torsions:
REMARK  status: ('A' for Active; 'I' for Inactive)
REMARK    1  A    between atoms: N1_1  and  C31_43 
REMARK    2  A    between atoms: C2_3  and  C3_4 
REMARK       I    between atoms: C3_4  and  N2_6 
REMARK    3  A    between atoms: N2_6  and  C4_8 
REMARK    4  A    between atoms: N3_12  and  C10_15 
REMARK    5  A    between atoms: C10_15  and  C11_16 
REMARK    6  A    between atoms: C11_16  and  O2_17 
REMARK    7  A    between atoms: C11_16  and  C12_19 
REMARK    8  A    between atoms: C12_19  and  C13_20 
REMARK    9  A    between atoms: C13_20  and  C21_28 
REMARK   10  A    between atoms: C13_20  and  C14_21 
REMARK   11  A    between atoms: C14_21  and  C15_22 
REMARK       I    between atoms: C21_28  and  N4_30 
REMARK   12  A    between atoms: N4_30  and  C22_32 
REMARK   13  A    between atoms: C23_33  and  O4_34 
REMARK   14  A    between atoms: C31_43  and  C32_44 
ROOT
HETATM    1  N1  MK1 B 902      18.220  19.207  10.243  1.00 28.25     0.096 N 
HETATM    2  C1  MK1 B 902      18.236  18.930   8.781  1.00 30.30     0.307 C 
HETATM    3  C2  MK1 B 902      18.070  20.044   7.767  1.00 27.27     0.200 C 
HETATM    4  N3  MK1 B 902      16.735  20.617   8.159  1.00 28.91    -0.395 N 
HETATM    5  C8  MK1 B 902      16.414  20.770   9.600  1.00 26.24     0.148 C 
HETATM    6  C9  MK1 B 902      16.965  19.729  10.554  1.00 27.47     0.292 C 
ENDROOT
BRANCH   1   7
HETATM    7  C31 MK1 B 902      18.677  18.134  11.135  1.00 36.25     0.312 C 
BRANCH   7   8
HETATM    8  C32 MK1 B 902      19.791  18.369  12.162  1.00 42.75    -0.015 A 
HETATM    9  C36 MK1 B 902      19.735  19.524  12.912  1.00 44.71     0.011 A 
HETATM   10  C35 MK1 B 902      20.755  19.753  13.832  1.00 49.34     0.018 A 
HETATM   11  C34 MK1 B 902      21.792  18.826  13.969  1.00 50.60     0.087 A 
HETATM   12  N5  MK1 B 902      21.923  17.638  13.252  1.00 51.38    -0.375 N 
HETATM   13  C33 MK1 B 902      20.859  17.480  12.349  1.00 47.41     0.096 A 
HETATM   14  H5  MK1 B 902      22.689  16.973  13.367  1.00  0.00     0.164 HD
ENDBRANCH   7   8
ENDBRANCH   1   7
BRANCH   3  15
HETATM   15  C3  MK1 B 902      18.069  19.435   6.391  1.00 28.85     0.242 C 
HETATM   16  O1  MK1 B 902      18.125  20.150   5.398  1.00 29.59    -0.271 OA
HETATM   17  N2  MK1 B 902      17.991  18.121   6.318  1.00 22.29    -0.351 N 
HETATM   18  H2  MK1 B 902      17.881  17.648   7.215  1.00  0.00     0.163 HD
BRANCH  17  19
HETATM   19  C4  MK1 B 902      18.037  17.253   5.185  1.00 23.47     0.022 C 
HETATM   20  C7  MK1 B 902      16.720  16.989   4.596  1.00 22.75     0.037 C 
HETATM   21  C5  MK1 B 902      18.519  15.881   5.689  1.00 27.66     0.037 C 
HETATM   22  C6  MK1 B 902      18.866  17.714   4.174  1.00 21.71     0.037 C 
ENDBRANCH  17  19
ENDBRANCH   3  15
BRANCH   4  23
HETATM   23  C10 MK1 B 902      16.274  21.791   7.445  1.00 20.86     0.149 C 
BRANCH  23  24
HETATM   24  C11 MK1 B 902      15.534  22.805   8.318  1.00 21.68     0.136 C 
BRANCH  24  25
HETATM   25  O2  MK1 B 902      16.442  23.843   8.105  1.00 15.87    -0.394 OA
HETATM   26  H2  MK1 B 902      16.730  24.161   8.953  1.00  0.00     0.210 HD
ENDBRANCH  24  25
BRANCH  24  27
HETATM   27  C12 MK1 B 902      14.121  23.339   8.015  1.00 21.49     0.047 C 
BRANCH  27  28
HETATM   28  C13 MK1 B 902      13.662  23.555   6.566  1.00 26.89     0.084 C 
BRANCH  28  29
HETATM   29  C21 MK1 B 902      12.822  24.817   6.413  1.00 29.35     0.222 C 
HETATM   30  N4  MK1 B 902      11.928  25.027   7.376  1.00 31.19    -0.350 N 
HETATM   31  H4  MK1 B 902      11.682  24.261   8.003  1.00  0.00     0.163 HD
HETATM   32  O3  MK1 B 902      13.062  25.629   5.507  1.00 32.66    -0.273 OA
BRANCH  30  33
HETATM   33  C22 MK1 B 902      11.294  26.322   7.556  1.00 29.22     0.147 C 
HETATM   34  C30 MK1 B 902       9.997  26.625   6.759  1.00 31.86    -0.027 A 
HETATM   35  C29 MK1 B 902       9.582  26.318   5.502  1.00 27.70     0.010 A 
HETATM   36  C25 MK1 B 902       8.995  27.451   7.616  1.00 31.29    -0.047 A 
HETATM   37  C28 MK1 B 902       8.341  26.716   5.026  1.00 29.01     0.001 A 
HETATM   38  C27 MK1 B 902       7.439  27.449   5.813  1.00 28.00     0.001 A 
HETATM   39  C26 MK1 B 902       7.767  27.822   7.121  1.00 32.00     0.008 A 
HETATM   40  C24 MK1 B 902       9.753  27.579   8.914  1.00 32.05     0.073 C 
HETATM   41  C23 MK1 B 902      10.853  26.546   8.992  1.00 28.82     0.149 C 
BRANCH  41  42
HETATM   42  O4  MK1 B 902      10.450  25.318   9.580  1.00 28.32    -0.393 OA
HETATM   43  H4  MK1 B 902      11.210  24.781   9.774  1.00  0.00     0.210 HD
ENDBRANCH  41  42
ENDBRANCH  30  33
ENDBRANCH  28  29
BRANCH  28  44
HETATM   44  C14 MK1 B 902      12.862  22.357   6.024  1.00 28.67     0.052 C 
BRANCH  44  45
HETATM   45  C15 MK1 B 902      13.622  21.577   5.016  1.00 26.89    -0.057 A 
HETATM   46  C16 MK1 B 902      13.789  22.010   3.699  1.00 29.22     0.007 A 
HETATM   47  C17 MK1 B 902      14.476  21.231   2.780  1.00 29.22     0.001 A 
HETATM   48  C18 MK1 B 902      14.996  20.003   3.195  1.00 30.97     0.000 A 
HETATM   49  C19 MK1 B 902      14.838  19.568   4.516  1.00 29.25     0.001 A 
HETATM   50  C20 MK1 B 902      14.145  20.364   5.429  1.00 29.96     0.007 A 
ENDBRANCH  44  45
ENDBRANCH  28  44
ENDBRANCH  27  28
ENDBRANCH  24  27
ENDBRANCH  23  24
ENDBRANCH   4  23
TORSDOF 14
ENDMDL
MODEL 13
REMARK VINA RESULT:      -9.1      2.857     10.756
REMARK  14 active torsions:
REMARK  status: ('A' for Active; 'I' for Inactive)
REMARK    1  A    between atoms: N1_1  and  C31_43 
REMARK    2  A    between atoms: C2_3  and  C3_4 
REMARK       I    between atoms: C3_4  and  N2_6 
REMARK    3  A    between atoms: N2_6  and  C4_8 
REMARK    4  A    between atoms: N3_12  and  C10_15 
REMARK    5  A    between atoms: C10_15  and  C11_16 
REMARK    6  A    between atoms: C11_16  and  O2_17 
REMARK    7  A    between atoms: C11_16  and  C12_19 
REMARK    8  A    between atoms: C12_19  and  C13_20 
REMARK    9  A    between atoms: C13_20  and  C21_28 
REMARK   10  A    between atoms: C13_20  and  C14_21 
REMARK   11  A    between atoms: C14_21  and  C15_22 
REMARK       I    between atoms: C21_28  and  N4_30 
REMARK   12  A    between atoms: N4_30  and  C22_32 
REMARK   13  A    between atoms: C23_33  and  O4_34 
REMARK   14  A    between atoms: C31_43  and  C32_44 
ROOT
HETATM    1  N1  MK1 B 902      18.498  19.153  10.187  1.00 28.25     0.096 N 
HETATM    2  C1  MK1 B 902      18.465  18.819   8.738  1.00 30.30     0.307 C 
HETATM    3  C2  MK1 B 902      18.420  19.903   7.680  1.00 27.27     0.200 C 
HETATM    4  N3  MK1 B 902      17.167  20.646   8.057  1.00 28.91    -0.395 N 
HETATM    5  C8  MK1 B 902      16.883  20.893   9.493  1.00 26.24     0.148 C 
HETATM    6  C9  MK1 B 902      17.318  19.833  10.484  1.00 27.47     0.292 C 
ENDROOT
BRANCH   1   7
HETATM    7  C31 MK1 B 902      18.835  18.070  11.119  1.00 36.25     0.312 C 
BRANCH   7   8
HETATM    8  C32 MK1 B 902      17.749  17.181  11.736  1.00 42.75    -0.015 A 
HETATM    9  C36 MK1 B 902      18.080  16.454  12.860  1.00 44.71     0.011 A 
HETATM   10  C35 MK1 B 902      17.104  15.629  13.413  1.00 49.34     0.018 A 
HETATM   11  C34 MK1 B 902      15.837  15.558  12.826  1.00 50.60     0.087 A 
HETATM   12  N5  MK1 B 902      15.422  16.257  11.693  1.00 51.38    -0.375 N 
HETATM   13  C33 MK1 B 902      16.460  17.063  11.198  1.00 47.41     0.096 A 
HETATM   14  H5  MK1 B 902      14.491  16.191  11.281  1.00  0.00     0.164 HD
ENDBRANCH   7   8
ENDBRANCH   1   7
BRANCH   3  15
HETATM   15  C3  MK1 B 902      18.332  19.245   6.330  1.00 28.85     0.242 C 
HETATM   16  O1  MK1 B 902      18.011  19.897   5.344  1.00 29.59    -0.271 OA
HETATM   17  N2  MK1 B 902      18.600  17.955   6.275  1.00 22.29    -0.351 N 
HETATM   18  H2  MK1 B 902      18.787  17.518   7.177  1.00  0.00     0.163 HD
BRANCH  17  19
HETATM   19  C4  MK1 B 902      18.670  17.072   5.154  1.00 23.47     0.022 C 
HETATM   20  C7  MK1 B 902      17.449  16.285   4.952  1.00 22.75     0.037 C 
HETATM   21  C5  MK1 B 902      19.756  16.029   5.472  1.00 27.66     0.037 C 
HETATM   22  C6  MK1 B 902      18.956  17.719   3.962  1.00 21.71     0.037 C 
ENDBRANCH  17  19
ENDBRANCH   3  15
BRANCH   4  23
HETATM   23  C10 MK1 B 902      16.841  21.838   7.298  1.00 20.86     0.149 C 
BRANCH  23  24
HETATM   24  C11 MK1 B 902      15.859  22.777   8.001  1.00 21.68     0.136 C 
BRANCH  24  25
HETATM   25  O2  MK1 B 902      16.330  23.937   7.382  1.00 15.87    -0.394 OA
HETATM   26  H2  MK1 B 902      16.667  23.697   6.526  1.00  0.00     0.210 HD
ENDBRANCH  24  25
BRANCH  24  27
HETATM   27  C12 MK1 B 902      14.331  22.726   7.817  1.00 21.49     0.047 C 
BRANCH  27  28
HETATM   28  C13 MK1 B 902      13.719  22.214   6.505  1.00 26.89     0.084 C 
BRANCH  28  29
HETATM   29  C21 MK1 B 902      12.268  22.650   6.342  1.00 29.35     0.222 C 
HETATM   30  N4  MK1 B 902      11.957  23.817   6.901  1.00 31.19    -0.350 N 
HETATM   31  H4  MK1 B 902      12.593  24.227   7.584  1.00  0.00     0.163 HD
HETATM   32  O3  MK1 B 902      11.488  21.996   5.633  1.00 32.66    -0.273 OA
BRANCH  30  33
HETATM   33  C22 MK1 B 902      10.732  24.520   6.562  1.00 29.22     0.147 C 
HETATM   34  C30 MK1 B 902      10.141  25.514   7.597  1.00 31.86    -0.027 A 
HETATM   35  C29 MK1 B 902      10.055  25.505   8.953  1.00 27.70     0.010 A 
HETATM   36  C25 MK1 B 902       9.536  26.761   6.892  1.00 31.29    -0.047 A 
HETATM   37  C28 MK1 B 902       9.467  26.550   9.653  1.00 29.01     0.001 A 
HETATM   38  C27 MK1 B 902       8.936  27.677   9.007  1.00 28.00     0.001 A 
HETATM   39  C26 MK1 B 902       8.969  27.786   7.613  1.00 32.00     0.008 A 
HETATM   40  C24 MK1 B 902       9.825  26.451   5.444  1.00 32.05     0.073 C 
HETATM   41  C23 MK1 B 902      10.899  25.394   5.330  1.00 28.82     0.149 C 
BRANCH  41  42
HETATM   42  O4  MK1 B 902      12.218  25.918   5.274  1.00 28.32    -0.393 OA
HETATM   43  H4  MK1 B 902      12.854  25.213   5.320  1.00  0.00     0.210 HD
ENDBRANCH  41  42
ENDBRANCH  30  33
ENDBRANCH  28  29
BRANCH  28  44
HETATM   44  C14 MK1 B 902      13.794  20.682   6.386  1.00 28.67     0.052 C 
BRANCH  44  45
HETATM   45  C15 MK1 B 902      14.345  20.240   5.080  1.00 26.89    -0.057 A 
HETATM   46  C16 MK1 B 902      14.426  21.087   3.973  1.00 29.22     0.007 A 
HETATM   47  C17 MK1 B 902      14.914  20.621   2.761  1.00 29.22     0.001 A 
HETATM   48  C18 MK1 B 902      15.322  19.288   2.668  1.00 30.97     0.000 A 
HETATM   49  C19 MK1 B 902      15.251  18.438   3.779  1.00 29.25     0.001 A 
HETATM   50  C20 MK1 B 902      14.758  18.922   4.990  1.00 29.96     0.007 A 
ENDBRANCH  44  45
ENDBRANCH  28  44
ENDBRANCH  27  28
ENDBRANCH  24  27
ENDBRANCH  23  24
ENDBRANCH   4  23
TORSDOF 14
ENDMDL
MODEL 14
REMARK VINA RESULT:      -8.8      2.590      5.045
REMARK  14 active torsions:
REMARK  status: ('A' for Active; 'I' for Inactive)
REMARK    1  A    between atoms: N1_1  and  C31_43 
REMARK    2  A    between atoms: C2_3  and  C3_4 
REMARK       I    between atoms: C3_4  and  N2_6 
REMARK    3  A    between atoms: N2_6  and  C4_8 
REMARK    4  A    between atoms: N3_12  and  C10_15 
REMARK    5  A    between atoms: C10_15  and  C11_16 
REMARK    6  A    between atoms: C11_16  and  O2_17 
REMARK    7  A    between atoms: C11_16  and  C12_19 
REMARK    8  A    between atoms: C12_19  and  C13_20 
REMARK    9  A    between atoms: C13_20  and  C21_28 
REMARK   10  A    between atoms: C13_20  and  C14_21 
REMARK   11  A    between atoms: C14_21  and  C15_22 
REMARK       I    between atoms: C21_28  and  N4_30 
REMARK   12  A    between atoms: N4_30  and  C22_32 
REMARK   13  A    between atoms: C23_33  and  O4_34 
REMARK   14  A    between atoms: C31_43  and  C32_44 
ROOT
HETATM    1  N1  MK1 B 902       5.508  24.636   2.492  1.00 28.25     0.096 N 
HETATM    2  C1  MK1 B 902       6.090  25.621   3.443  1.00 30.30     0.307 C 
HETATM    3  C2  MK1 B 902       7.568  25.956   3.424  1.00 27.27     0.200 C 
HETATM    4  N3  MK1 B 902       8.191  24.605   3.651  1.00 28.91    -0.395 N 
HETATM    5  C8  MK1 B 902       7.612  23.424   2.964  1.00 26.24     0.148 C 
HETATM    6  C9  MK1 B 902       6.112  23.406   2.746  1.00 27.47     0.292 C 
ENDROOT
BRANCH   1   7
HETATM    7  C31 MK1 B 902       4.045  24.592   2.382  1.00 36.25     0.312 C 
BRANCH   7   8
HETATM    8  C32 MK1 B 902       3.346  23.628   1.417  1.00 42.75    -0.015 A 
HETATM    9  C36 MK1 B 902       2.474  22.705   1.954  1.00 44.71     0.011 A 
HETATM   10  C35 MK1 B 902       1.850  21.814   1.085  1.00 49.34     0.018 A 
HETATM   11  C34 MK1 B 902       2.121  21.873  -0.286  1.00 50.60     0.087 A 
HETATM   12  N5  MK1 B 902       2.985  22.771  -0.909  1.00 51.38    -0.375 N 
HETATM   13  C33 MK1 B 902       3.571  23.633   0.033  1.00 47.41     0.096 A 
HETATM   14  H5  MK1 B 902       3.168  22.798  -1.912  1.00  0.00     0.164 HD
ENDBRANCH   7   8
ENDBRANCH   1   7
BRANCH   3  15
HETATM   15  C3  MK1 B 902       7.848  26.929   4.538  1.00 28.85     0.242 C 
HETATM   16  O1  MK1 B 902       8.692  27.804   4.397  1.00 29.59    -0.271 OA
HETATM   17  N2  MK1 B 902       7.159  26.777   5.652  1.00 22.29    -0.351 N 
HETATM   18  H2  MK1 B 902       6.537  25.968   5.664  1.00  0.00     0.163 HD
BRANCH  17  19
HETATM   19  C4  MK1 B 902       7.142  27.563   6.844  1.00 23.47     0.022 C 
HETATM   20  C7  MK1 B 902       6.761  26.806   8.040  1.00 22.75     0.037 C 
HETATM   21  C5  MK1 B 902       6.026  28.610   6.676  1.00 27.66     0.037 C 
HETATM   22  C6  MK1 B 902       8.352  28.186   7.107  1.00 21.71     0.037 C 
ENDBRANCH  17  19
ENDBRANCH   3  15
BRANCH   4  23
HETATM   23  C10 MK1 B 902       9.637  24.517   3.605  1.00 20.86     0.149 C 
BRANCH  23  24
HETATM   24  C11 MK1 B 902      10.201  23.204   4.150  1.00 21.68     0.136 C 
BRANCH  24  25
HETATM   25  O2  MK1 B 902      11.096  23.005   3.096  1.00 15.87    -0.394 OA
HETATM   26  H2  MK1 B 902      11.191  23.829   2.632  1.00  0.00     0.210 HD
ENDBRANCH  24  25
BRANCH  24  27
HETATM   27  C12 MK1 B 902      10.985  23.082   5.469  1.00 21.49     0.047 C 
BRANCH  27  28
HETATM   28  C13 MK1 B 902      12.466  23.483   5.539  1.00 26.89     0.084 C 
BRANCH  28  29
HETATM   29  C21 MK1 B 902      13.291  22.489   6.347  1.00 29.35     0.222 C 
HETATM   30  N4  MK1 B 902      14.550  22.851   6.580  1.00 31.19    -0.350 N 
HETATM   31  H4  MK1 B 902      14.960  23.609   6.035  1.00  0.00     0.163 HD
HETATM   32  O3  MK1 B 902      12.763  21.479   6.836  1.00 32.66    -0.273 OA
BRANCH  30  33
HETATM   33  C22 MK1 B 902      15.357  22.191   7.592  1.00 29.22     0.147 C 
HETATM   34  C30 MK1 B 902      16.337  21.076   7.143  1.00 31.86    -0.027 A 
HETATM   35  C29 MK1 B 902      16.267  20.096   6.204  1.00 27.70     0.010 A 
HETATM   36  C25 MK1 B 902      17.659  21.129   7.961  1.00 31.29    -0.047 A 
HETATM   37  C28 MK1 B 902      17.315  19.209   5.995  1.00 29.01     0.001 A 
HETATM   38  C27 MK1 B 902      18.508  19.277   6.730  1.00 28.00     0.001 A 
HETATM   39  C26 MK1 B 902      18.685  20.245   7.724  1.00 32.00     0.008 A 
HETATM   40  C24 MK1 B 902      17.401  22.315   8.858  1.00 32.05     0.073 C 
HETATM   41  C23 MK1 B 902      16.277  23.163   8.311  1.00 28.82     0.149 C 
BRANCH  41  42
HETATM   42  O4  MK1 B 902      16.706  24.183   7.421  1.00 28.32    -0.393 OA
HETATM   43  H4  MK1 B 902      17.099  23.799   6.646  1.00  0.00     0.210 HD
ENDBRANCH  41  42
ENDBRANCH  30  33
ENDBRANCH  28  29
BRANCH  28  44
HETATM   44  C14 MK1 B 902      12.660  24.890   6.132  1.00 28.67     0.052 C 
BRANCH  44  45
HETATM   45  C15 MK1 B 902      11.843  25.110   7.351  1.00 26.89    -0.057 A 
HETATM   46  C16 MK1 B 902      10.481  24.807   7.409  1.00 29.22     0.007 A 
HETATM   47  C17 MK1 B 902       9.748  25.064   8.558  1.00 29.22     0.001 A 
HETATM   48  C18 MK1 B 902      10.396  25.633   9.656  1.00 30.97     0.000 A 
HETATM   49  C19 MK1 B 902      11.763  25.932   9.605  1.00 29.25     0.001 A 
HETATM   50  C20 MK1 B 902      12.487  25.667   8.443  1.00 29.96     0.007 A 
ENDBRANCH  44  45
ENDBRANCH  28  44
ENDBRANCH  27  28
ENDBRANCH  24  27
ENDBRANCH  23  24
ENDBRANCH   4  23
TORSDOF 14
ENDMDL
MODEL 15
REMARK VINA RESULT:      -8.8      2.199      4.174
REMARK  14 active torsions:
REMARK  status: ('A' for Active; 'I' for Inactive)
REMARK    1  A    between atoms: N1_1  and  C31_43 
REMARK    2  A    between atoms: C2_3  and  C3_4 
REMARK       I    between atoms: C3_4  and  N2_6 
REMARK    3  A    between atoms: N2_6  and  C4_8 
REMARK    4  A    between atoms: N3_12  and  C10_15 
REMARK    5  A    between atoms: C10_15  and  C11_16 
REMARK    6  A    between atoms: C11_16  and  O2_17 
REMARK    7  A    between atoms: C11_16  and  C12_19 
REMARK    8  A    between atoms: C12_19  and  C13_20 
REMARK    9  A    between atoms: C13_20  and  C21_28 
REMARK   10  A    between atoms: C13_20  and  C14_21 
REMARK   11  A    between atoms: C14_21  and  C15_22 
REMARK       I    between atoms: C21_28  and  N4_30 
REMARK   12  A    between atoms: N4_30  and  C22_32 
REMARK   13  A    between atoms: C23_33  and  O4_34 
REMARK   14  A    between atoms: C31_43  and  C32_44 
ROOT
HETATM    1  N1  MK1 B 902       5.353  24.633   3.277  1.00 28.25     0.096 N 
HETATM    2  C1  MK1 B 902       6.151  25.516   4.170  1.00 30.30     0.307 C 
HETATM    3  C2  MK1 B 902       7.632  25.742   3.938  1.00 27.27     0.200 C 
HETATM    4  N3  MK1 B 902       8.168  24.338   4.004  1.00 28.91    -0.395 N 
HETATM    5  C8  MK1 B 902       7.397  23.244   3.363  1.00 26.24     0.148 C 
HETATM    6  C9  MK1 B 902       5.886  23.349   3.379  1.00 27.47     0.292 C 
ENDROOT
BRANCH   1   7
HETATM    7  C31 MK1 B 902       3.892  24.704   3.394  1.00 36.25     0.312 C 
BRANCH   7   8
HETATM    8  C32 MK1 B 902       3.214  25.680   4.362  1.00 42.75    -0.015 A 
HETATM    9  C36 MK1 B 902       3.205  25.351   5.701  1.00 44.71     0.011 A 
HETATM   10  C35 MK1 B 902       2.574  26.224   6.583  1.00 49.34     0.018 A 
HETATM   11  C34 MK1 B 902       1.972  27.390   6.099  1.00 50.60     0.087 A 
HETATM   12  N5  MK1 B 902       1.935  27.795   4.766  1.00 51.38    -0.375 N 
HETATM   13  C33 MK1 B 902       2.592  26.865   3.943  1.00 47.41     0.096 A 
HETATM   14  H5  MK1 B 902       1.492  28.651   4.432  1.00  0.00     0.164 HD
ENDBRANCH   7   8
ENDBRANCH   1   7
BRANCH   3  15
HETATM   15  C3  MK1 B 902       8.155  26.626   5.037  1.00 28.85     0.242 C 
HETATM   16  O1  MK1 B 902       9.050  27.430   4.812  1.00 29.59    -0.271 OA
HETATM   17  N2  MK1 B 902       7.616  26.477   6.232  1.00 22.29    -0.351 N 
HETATM   18  H2  MK1 B 902       6.928  25.727   6.301  1.00  0.00     0.163 HD
BRANCH  17  19
HETATM   19  C4  MK1 B 902       7.840  27.198   7.444  1.00 23.47     0.022 C 
HETATM   20  C7  MK1 B 902       8.107  26.334   8.598  1.00 22.75     0.037 C 
HETATM   21  C5  MK1 B 902       6.522  27.914   7.792  1.00 27.66     0.037 C 
HETATM   22  C6  MK1 B 902       8.877  28.114   7.354  1.00 21.71     0.037 C 
ENDBRANCH  17  19
ENDBRANCH   3  15
BRANCH   4  23
HETATM   23  C10 MK1 B 902       9.579  24.146   3.731  1.00 20.86     0.149 C 
BRANCH  23  24
HETATM   24  C11 MK1 B 902      10.122  22.786   4.171  1.00 21.68     0.136 C 
BRANCH  24  25
HETATM   25  O2  MK1 B 902      10.168  22.246   2.884  1.00 15.87    -0.394 OA
HETATM   26  H2  MK1 B 902       9.279  22.202   2.552  1.00  0.00     0.210 HD
ENDBRANCH  24  25
BRANCH  24  27
HETATM   27  C12 MK1 B 902      11.500  22.576   4.825  1.00 21.49     0.047 C 
BRANCH  27  28
HETATM   28  C13 MK1 B 902      12.778  23.066   4.129  1.00 26.89     0.084 C 
BRANCH  28  29
HETATM   29  C21 MK1 B 902      13.979  22.185   4.450  1.00 29.35     0.222 C 
HETATM   30  N4  MK1 B 902      13.752  21.207   5.324  1.00 31.19    -0.350 N 
HETATM   31  H4  MK1 B 902      12.908  21.236   5.895  1.00  0.00     0.163 HD
HETATM   32  O3  MK1 B 902      15.047  22.325   3.836  1.00 32.66    -0.273 OA
BRANCH  30  33
HETATM   33  C22 MK1 B 902      14.678  20.099   5.483  1.00 29.22     0.147 C 
HETATM   34  C30 MK1 B 902      15.389  19.544   4.221  1.00 31.86    -0.027 A 
HETATM   35  C29 MK1 B 902      14.992  19.352   2.936  1.00 27.70     0.010 A 
HETATM   36  C25 MK1 B 902      16.857  19.139   4.539  1.00 31.29    -0.047 A 
HETATM   37  C28 MK1 B 902      15.850  18.832   1.977  1.00 29.01     0.001 A 
HETATM   38  C27 MK1 B 902      17.176  18.483   2.273  1.00 28.00     0.001 A 
HETATM   39  C26 MK1 B 902      17.688  18.636   3.566  1.00 32.00     0.008 A 
HETATM   40  C24 MK1 B 902      16.953  19.503   6.000  1.00 32.05     0.073 C 
HETATM   41  C23 MK1 B 902      15.847  20.458   6.385  1.00 28.82     0.149 C 
BRANCH  41  42
HETATM   42  O4  MK1 B 902      16.187  21.828   6.226  1.00 28.32    -0.393 OA
HETATM   43  H4  MK1 B 902      17.017  22.012   6.651  1.00  0.00     0.210 HD
ENDBRANCH  41  42
ENDBRANCH  30  33
ENDBRANCH  28  29
BRANCH  28  44
HETATM   44  C14 MK1 B 902      13.118  24.522   4.493  1.00 28.67     0.052 C 
BRANCH  44  45
HETATM   45  C15 MK1 B 902      12.906  24.812   5.933  1.00 26.89    -0.057 A 
HETATM   46  C16 MK1 B 902      13.734  24.299   6.934  1.00 29.22     0.007 A 
HETATM   47  C17 MK1 B 902      13.477  24.566   8.270  1.00 29.22     0.001 A 
HETATM   48  C18 MK1 B 902      12.373  25.356   8.597  1.00 30.97     0.000 A 
HETATM   49  C19 MK1 B 902      11.544  25.878   7.597  1.00 29.25     0.001 A 
HETATM   50  C20 MK1 B 902      11.816  25.601   6.258  1.00 29.96     0.007 A 
ENDBRANCH  44  45
ENDBRANCH  28  44
ENDBRANCH  27  28
ENDBRANCH  24  27
ENDBRANCH  23  24
ENDBRANCH   4  23
TORSDOF 14
ENDMDL
MODEL 16
REMARK VINA RESULT:      -8.8      2.717     11.203
REMARK  14 active torsions:
REMARK  status: ('A' for Active; 'I' for Inactive)
REMARK    1  A    between atoms: N1_1  and  C31_43 
REMARK    2  A    between atoms: C2_3  and  C3_4 
REMARK       I    between atoms: C3_4  and  N2_6 
REMARK    3  A    between atoms: N2_6  and  C4_8 
REMARK    4  A    between atoms: N3_12  and  C10_15 
REMARK    5  A    between atoms: C10_15  and  C11_16 
REMARK    6  A    between atoms: C11_16  and  O2_17 
REMARK    7  A    between atoms: C11_16  and  C12_19 
REMARK    8  A    between atoms: C12_19  and  C13_20 
REMARK    9  A    between atoms: C13_20  and  C21_28 
REMARK   10  A    between atoms: C13_20  and  C14_21 
REMARK   11  A    between atoms: C14_21  and  C15_22 
REMARK       I    between atoms: C21_28  and  N4_30 
REMARK   12  A    between atoms: N4_30  and  C22_32 
REMARK   13  A    between atoms: C23_33  and  O4_34 
REMARK   14  A    between atoms: C31_43  and  C32_44 
ROOT
HETATM    1  N1  MK1 B 902      18.146  19.058  10.209  1.00 28.25     0.096 N 
HETATM    2  C1  MK1 B 902      18.220  18.779   8.749  1.00 30.30     0.307 C 
HETATM    3  C2  MK1 B 902      18.189  19.900   7.730  1.00 27.27     0.200 C 
HETATM    4  N3  MK1 B 902      16.880  20.569   8.052  1.00 28.91    -0.395 N 
HETATM    5  C8  MK1 B 902      16.495  20.746   9.474  1.00 26.24     0.148 C 
HETATM    6  C9  MK1 B 902      16.918  19.670  10.453  1.00 27.47     0.292 C 
ENDROOT
BRANCH   1   7
HETATM    7  C31 MK1 B 902      18.476  17.956  11.121  1.00 36.25     0.312 C 
BRANCH   7   8
HETATM    8  C32 MK1 B 902      19.164  18.212  12.467  1.00 42.75    -0.015 A 
HETATM    9  C36 MK1 B 902      19.643  19.482  12.709  1.00 44.71     0.011 A 
HETATM   10  C35 MK1 B 902      20.287  19.717  13.921  1.00 49.34     0.018 A 
HETATM   11  C34 MK1 B 902      20.432  18.678  14.845  1.00 50.60     0.087 A 
HETATM   12  N5  MK1 B 902      19.979  17.370  14.680  1.00 51.38    -0.375 N 
HETATM   13  C33 MK1 B 902      19.343  17.216  13.437  1.00 47.41     0.096 A 
HETATM   14  H5  MK1 B 902      20.095  16.625  15.368  1.00  0.00     0.164 HD
ENDBRANCH   7   8
ENDBRANCH   1   7
BRANCH   3  15
HETATM   15  C3  MK1 B 902      18.217  19.291   6.354  1.00 28.85     0.242 C 
HETATM   16  O1  MK1 B 902      18.416  19.993   5.371  1.00 29.59    -0.271 OA
HETATM   17  N2  MK1 B 902      18.006  17.992   6.271  1.00 22.29    -0.351 N 
HETATM   18  H2  MK1 B 902      17.786  17.536   7.157  1.00  0.00     0.163 HD
BRANCH  17  19
HETATM   19  C4  MK1 B 902      18.037  17.121   5.140  1.00 23.47     0.022 C 
HETATM   20  C7  MK1 B 902      18.850  15.919   5.348  1.00 22.75     0.037 C 
HETATM   21  C5  MK1 B 902      18.752  17.880   4.007  1.00 27.66     0.037 C 
HETATM   22  C6  MK1 B 902      16.779  16.712   4.727  1.00 21.71     0.037 C 
ENDBRANCH  17  19
ENDBRANCH   3  15
BRANCH   4  23
HETATM   23  C10 MK1 B 902      16.544  21.772   7.317  1.00 20.86     0.149 C 
BRANCH  23  24
HETATM   24  C11 MK1 B 902      15.842  22.842   8.155  1.00 21.68     0.136 C 
BRANCH  24  25
HETATM   25  O2  MK1 B 902      16.694  23.880   7.773  1.00 15.87    -0.394 OA
HETATM   26  H2  MK1 B 902      16.567  24.037   6.844  1.00  0.00     0.210 HD
ENDBRANCH  24  25
BRANCH  24  27
HETATM   27  C12 MK1 B 902      14.392  23.307   7.925  1.00 21.49     0.047 C 
BRANCH  27  28
HETATM   28  C13 MK1 B 902      13.744  23.186   6.539  1.00 26.89     0.084 C 
BRANCH  28  29
HETATM   29  C21 MK1 B 902      12.615  24.191   6.345  1.00 29.35     0.222 C 
HETATM   30  N4  MK1 B 902      11.397  23.667   6.238  1.00 31.19    -0.350 N 
HETATM   31  H4  MK1 B 902      11.299  22.669   6.050  1.00  0.00     0.163 HD
HETATM   32  O3  MK1 B 902      12.837  25.410   6.405  1.00 32.66    -0.273 OA
BRANCH  30  33
HETATM   33  C22 MK1 B 902      10.202  24.482   6.380  1.00 29.22     0.147 C 
HETATM   34  C30 MK1 B 902      10.212  25.630   7.423  1.00 31.86    -0.027 A 
HETATM   35  C29 MK1 B 902      10.748  25.756   8.666  1.00 27.70     0.010 A 
HETATM   36  C25 MK1 B 902       9.441  26.873   6.895  1.00 31.29    -0.047 A 
HETATM   37  C28 MK1 B 902      10.613  26.924   9.404  1.00 29.01     0.001 A 
HETATM   38  C27 MK1 B 902       9.926  28.043   8.911  1.00 28.00     0.001 A 
HETATM   39  C26 MK1 B 902       9.332  28.021   7.644  1.00 32.00     0.008 A 
HETATM   40  C24 MK1 B 902       9.023  26.399   5.525  1.00 32.05     0.073 C 
HETATM   41  C23 MK1 B 902       9.854  25.213   5.094  1.00 28.82     0.149 C 
BRANCH  41  42
HETATM   42  O4  MK1 B 902      11.038  25.563   4.392  1.00 28.32    -0.393 OA
HETATM   43  H4  MK1 B 902      11.049  25.147   3.538  1.00  0.00     0.210 HD
ENDBRANCH  41  42
ENDBRANCH  30  33
ENDBRANCH  28  29
BRANCH  28  44
HETATM   44  C14 MK1 B 902      13.202  21.771   6.270  1.00 28.67     0.052 C 
BRANCH  44  45
HETATM   45  C15 MK1 B 902      13.837  21.135   5.089  1.00 26.89    -0.057 A 
HETATM   46  C16 MK1 B 902      14.514  19.916   5.165  1.00 29.22     0.007 A 
HETATM   47  C17 MK1 B 902      15.125  19.375   4.043  1.00 29.22     0.001 A 
HETATM   48  C18 MK1 B 902      15.053  20.074   2.836  1.00 30.97     0.000 A 
HETATM   49  C19 MK1 B 902      14.369  21.293   2.754  1.00 29.25     0.001 A 
HETATM   50  C20 MK1 B 902      13.759  21.823   3.891  1.00 29.96     0.007 A 
ENDBRANCH  44  45
ENDBRANCH  28  44
ENDBRANCH  27  28
ENDBRANCH  24  27
ENDBRANCH  23  24
ENDBRANCH   4  23
TORSDOF 14
ENDMDL
